taskid: 0 hostname: sol3
 Ntasks in X            1, ntasks in Y            1
--- WARNING: traj_opt is zero, but num_traj is not zero; setting num_traj to zero.
--- NOTE: obs_nudge_opt is 0 for domain      1, setting obs nudging interval and ending time to 0 for that domain.
bl_pbl_physics /= 4, implies mfshconv must be 0, resetting
--- NOTE: RRTMG radiation is in use, setting:  levsiz=59, alevsiz=12, no_src_types=6
--- NOTE: num_soil_layers has been set to      2
REAL_EM V3.6.1 PREPROCESSOR
  real_em: calling alloc_and_configure_domain
 *************************************
 Parent domain
 ids,ide,jds,jde            1         313           1         328
 ims,ime,jms,jme           -4         318          -4         333
 ips,ipe,jps,jpe            1         313           1         328
 *************************************
DYNAMICS OPTION: Eulerian Mass Coordinate
   alloc_space_field: domain            1,             4947276392 bytes allocated
   DEBUG wrf_timetoa():  returning with str = [2011-07-01_00:00:00]
   DEBUG wrf_timetoa():  returning with str = [2011-07-01_00:00:00]
   DEBUG wrf_timetoa():  returning with str = [2011-07-03_00:00:00]
   DEBUG wrf_timeinttoa():  returning with str = [0000000000_000:000:024]
 DEBUG setup_timekeeping():  clock after creation,  clock start time = 2011-07-01_00:00:00
 DEBUG setup_timekeeping():  clock after creation,  clock current time = 2011-07-01_00:00:00
 DEBUG setup_timekeeping():  clock after creation,  clock stop time = 2011-07-03_00:00:00
 DEBUG setup_timekeeping():  clock after creation,  clock time step = 0000000000_000:000:024
   setup_timekeeping:  set xtime to   0.0000000E+00
   setup_timekeeping:  set julian to    181.0000
  setup_timekeeping:  returning...
d01 2011-07-01_00:00:00  DEBUG wrf_timetoa():  returning with str = [2011-07-01_00:00:00]
d01 2011-07-01_00:00:00  DEBUG wrf_timetoa():  returning with str = [2011-07-01_00:00:00]
d01 2011-07-01_00:00:00  DEBUG wrf_timetoa():  returning with str = [2011-07-03_00:00:00]
d01 2011-07-01_00:00:00  DEBUG wrf_timeinttoa():  returning with str = [0000000000_000:000:024]
 DEBUG real:  clock after Setup_Timekeeping,  clock start time = 2011-07-01_00:00:00
 DEBUG real:  clock after Setup_Timekeeping,  clock current time = 2011-07-01_00:00:00
 DEBUG real:  clock after Setup_Timekeeping,  clock stop time = 2011-07-03_00:00:00
 DEBUG real:  clock after Setup_Timekeeping,  clock time step = 0000000000_000:000:024
d01 2011-07-01_00:00:00  DEBUG wrf_timetoa():  returning with str = [2011-07-01_00:00:00]
d01 2011-07-01_00:00:00  DEBUG wrf_timetoa():  returning with str = [2011-07-01_00:00:00]
d01 2011-07-01_00:00:00  DEBUG wrf_timetoa():  returning with str = [2011-07-03_00:00:00]
d01 2011-07-01_00:00:00  DEBUG wrf_timeinttoa():  returning with str = [0000000000_003:000:000]
 DEBUG real:  clock after timeStep set,  clock start time = 2011-07-01_00:00:00
 DEBUG real:  clock after timeStep set,  clock current time = 2011-07-01_00:00:00
 DEBUG real:  clock after timeStep set,  clock stop time = 2011-07-03_00:00:00
 DEBUG real:  clock after timeStep set,  clock time step = 0000000000_003:000:000
d01 2011-07-01_00:00:00 real_em: calling set_scalar_indices_from_config
d01 2011-07-01_00:00:00 real_em: calling model_to_grid_config_rec
d01 2011-07-01_00:00:00 real_em: calling init_wrfio
d01 2011-07-01_00:00:00 module_io.F: in wrf_ioinit
d01 2011-07-01_00:00:00 Entering ext_gr1_ioinit
d01 2011-07-01_00:00:00 real_em: re-broadcast the configuration records
d01 2011-07-01_00:00:00 calling med_sidata_input
Time period #   1 to process = 2011-07-01_00:00:00.
Time period #   2 to process = 2011-07-01_03:00:00.
Time period #   3 to process = 2011-07-01_06:00:00.
Time period #   4 to process = 2011-07-01_09:00:00.
Time period #   5 to process = 2011-07-01_12:00:00.
Time period #   6 to process = 2011-07-01_15:00:00.
Time period #   7 to process = 2011-07-01_18:00:00.
Time period #   8 to process = 2011-07-01_21:00:00.
Time period #   9 to process = 2011-07-02_00:00:00.
Total analysis times to input =    9.
d01 2011-07-01_00:00:00  DEBUG wrf_timetoa():  returning with str = [2011-07-01_00:00:00]
d01 2011-07-01_00:00:00  DEBUG wrf_timetoa():  returning with str = [2011-07-01_00:00:00]
d01 2011-07-01_00:00:00  DEBUG wrf_timetoa():  returning with str = [2011-07-02_00:00:00]
d01 2011-07-01_00:00:00  DEBUG wrf_timeinttoa():  returning with str = [0000000000_003:000:000]
 DEBUG med_sidata_input:  clock after stopTime set,  clock start time = 2011-07-01_00:00:00
 DEBUG med_sidata_input:  clock after stopTime set,  clock current time = 2011-07-01_00:00:00
 DEBUG med_sidata_input:  clock after stopTime set,  clock stop time = 2011-07-02_00:00:00
 DEBUG med_sidata_input:  clock after stopTime set,  clock time step = 0000000000_003:000:000
  
 -----------------------------------------------------------------------------
  
 Domain  1: Current date being processed: 2011-07-01_00:00:00.0000, which is loop #   1 out of    9
 configflags%julyr, %julday, %gmt:        2011         182  0.0000000E+00
d01 2011-07-01_00:00:00 med_sidata_input: calling open_r_dataset for met_em.d<domain>.<date>
d01 2011-07-01_00:00:00 module_io.F: in wrf_open_for_read
d01 2011-07-01_00:00:00 med_sidata_input: calling input_auxinput1
d01 2011-07-01_00:00:00  input_wrf: begin, fid =            1
d01 2011-07-01_00:00:00 module_io.F: in wrf_inquire_filename
d01 2011-07-01_00:00:00  input_wrf: fid,filestate =            1         103
d01 2011-07-01_00:00:00  input_wrf: dryrun =  F switch           27
d01 2011-07-01_00:00:00 module_io.F (md_calls.m4) : in wrf_get_dom_ti_char_arr
 metgrid input_wrf.F first_date_input = 2011-07-01_00:00:00
 metgrid input_wrf.F first_date_nml = 2011-07-01_00:00:00
d01 2011-07-01_00:00:00 module_io.F (md_calls.m4) : in wrf_get_dom_ti_integer_sca
d01 2011-07-01_00:00:00 module_io.F (md_calls.m4) : in wrf_get_dom_ti_integer_sca
d01 2011-07-01_00:00:00 module_io.F (md_calls.m4) : in wrf_get_dom_ti_integer_sca
d01 2011-07-01_00:00:00 module_io.F (md_calls.m4) : in wrf_get_dom_ti_real_sca
d01 2011-07-01_00:00:00 module_io.F (md_calls.m4) : in wrf_get_dom_ti_real_sca
d01 2011-07-01_00:00:00 module_io.F (md_calls.m4) : in wrf_get_dom_ti_real_sca
d01 2011-07-01_00:00:00  input_wrf: wrf_get_dom_ti_real for CEN_LAT returns    38.35431
d01 2011-07-01_00:00:00 module_io.F (md_calls.m4) : in wrf_get_dom_ti_real_sca
d01 2011-07-01_00:00:00  input_wrf: wrf_get_dom_ti_real for CEN_LON returns   -77.75912
d01 2011-07-01_00:00:00 module_io.F (md_calls.m4) : in wrf_get_dom_ti_real_sca
d01 2011-07-01_00:00:00  input_wrf: wrf_get_dom_ti_real for TRUELAT1 returns    33.00000
d01 2011-07-01_00:00:00 module_io.F (md_calls.m4) : in wrf_get_dom_ti_real_sca
d01 2011-07-01_00:00:00  input_wrf: wrf_get_dom_ti_real for TRUELAT2 returns    45.00000
d01 2011-07-01_00:00:00 module_io.F (md_calls.m4) : in wrf_get_dom_ti_real_sca
d01 2011-07-01_00:00:00  input_wrf: wrf_get_dom_ti_real for MOAD_CEN_LAT returns    38.35431
d01 2011-07-01_00:00:00 module_io.F (md_calls.m4) : in wrf_get_dom_ti_real_sca
d01 2011-07-01_00:00:00  input_wrf: wrf_get_dom_ti_real for STAND_LON returns   -97.00000
d01 2011-07-01_00:00:00 module_io.F (md_calls.m4) : in wrf_get_dom_ti_real_sca
d01 2011-07-01_00:00:00  input_wrf: wrf_get_dom_ti_real for POLE_LAT returns    90.00000
d01 2011-07-01_00:00:00 module_io.F (md_calls.m4) : in wrf_get_dom_ti_real_sca
d01 2011-07-01_00:00:00  input_wrf: wrf_get_dom_ti_real for POLE_LON returns   0.0000000E+00
d01 2011-07-01_00:00:00 module_io.F (md_calls.m4) : in wrf_get_dom_ti_real_sca
d01 2011-07-01_00:00:00  NetCDF error: NetCDF: Attribute not found
d01 2011-07-01_00:00:00  NetCDF error in ext_ncd_get_dom_ti.code REAL, line          83 Element P_TOP
d01 2011-07-01_00:00:00  input_wrf: wrf_get_dom_ti_real for P_TOP returns   0.0000000E+00
d01 2011-07-01_00:00:00 module_io.F (md_calls.m4) : in wrf_get_dom_ti_real_sca
d01 2011-07-01_00:00:00  NetCDF error: NetCDF: Attribute not found
d01 2011-07-01_00:00:00  NetCDF error in ext_ncd_get_dom_ti.code REAL, line          83 Element GMT
d01 2011-07-01_00:00:00  input_wrf: wrf_get_dom_ti_real for GMT returns   0.0000000E+00
d01 2011-07-01_00:00:00 module_io.F (md_calls.m4) : in wrf_get_dom_ti_integer_sca
d01 2011-07-01_00:00:00  NetCDF error: NetCDF: Attribute not found
d01 2011-07-01_00:00:00  NetCDF error in ext_ncd_get_dom_ti.code INTEGER, line          83 Element JULYR
d01 2011-07-01_00:00:00  input_wrf: wrf_get_dom_ti_integer for JULYR returns         2011
d01 2011-07-01_00:00:00 module_io.F (md_calls.m4) : in wrf_get_dom_ti_integer_sca
d01 2011-07-01_00:00:00  NetCDF error: NetCDF: Attribute not found
d01 2011-07-01_00:00:00  NetCDF error in ext_ncd_get_dom_ti.code INTEGER, line          83 Element JULDAY
d01 2011-07-01_00:00:00  input_wrf: wrf_get_dom_ti_integer for JULDAY returns          182
d01 2011-07-01_00:00:00 module_io.F (md_calls.m4) : in wrf_get_dom_ti_integer_sca
d01 2011-07-01_00:00:00  input_wrf: wrf_get_dom_ti_integer for MAP_PROJ returns            1
d01 2011-07-01_00:00:00 module_io.F (md_calls.m4) : in wrf_get_dom_ti_char_arr
d01 2011-07-01_00:00:00 mminlu = 'NLCD40'
d01 2011-07-01_00:00:00  input_wrf: wrf_get_dom_ti_char for MMINLU returns NLCD40
d01 2011-07-01_00:00:00 module_io.F (md_calls.m4) : in wrf_get_dom_ti_integer_sca
d01 2011-07-01_00:00:00 module_io.F (md_calls.m4) : in wrf_get_dom_ti_integer_sca
d01 2011-07-01_00:00:00  input_wrf: global attribute NUM_METGRID_SOIL_LEVELS returns            4
d01 2011-07-01_00:00:00 module_io.F (md_calls.m4) : in wrf_get_dom_ti_integer_sca
d01 2011-07-01_00:00:00  input_wrf: wrf_get_dom_ti_integer for ISWATER returns           17
d01 2011-07-01_00:00:00 module_io.F (md_calls.m4) : in wrf_get_dom_ti_integer_sca
d01 2011-07-01_00:00:00  input_wrf: wrf_get_dom_ti_integer for ISLAKE returns           -1
d01 2011-07-01_00:00:00 module_io.F (md_calls.m4) : in wrf_get_dom_ti_integer_sca
d01 2011-07-01_00:00:00  input_wrf: wrf_get_dom_ti_integer for ISICE returns           15
d01 2011-07-01_00:00:00 module_io.F (md_calls.m4) : in wrf_get_dom_ti_integer_sca
d01 2011-07-01_00:00:00  input_wrf: wrf_get_dom_ti_integer for ISURBAN returns           13
d01 2011-07-01_00:00:00 module_io.F (md_calls.m4) : in wrf_get_dom_ti_integer_sca
d01 2011-07-01_00:00:00  input_wrf: wrf_get_dom_ti_integer for ISOILWATER returns           14
d01 2011-07-01_00:00:00 module_io.F: in wrf_get_next_time
d01 2011-07-01_00:00:00            1 input_wrf: wrf_get_next_time current_date: 2011-07-01_00:00:00 Status =            0
d01 2011-07-01_00:00:00  DEBUG wrf_timetoa():  returning with str = [2011-07-01_00:00:00]
d01 2011-07-01_00:00:00  DEBUG wrf_timetoa():  returning with str = [2011-07-01_00:00:00]
d01 2011-07-01_00:00:00  DEBUG wrf_timetoa():  returning with str = [2011-07-01_00:00:00]
d01 2011-07-01_00:00:00  DEBUG wrf_timetoa():  returning with str = [2011-07-02_00:00:00]
d01 2011-07-01_00:00:00  DEBUG wrf_timeinttoa():  returning with str = [0000000000_003:000:000]
 DEBUG input_wrf():  get CurrTime from clock,  clock start time = 2011-07-01_00:00:00
 DEBUG input_wrf():  get CurrTime from clock,  clock current time = 2011-07-01_00:00:00
 DEBUG input_wrf():  get CurrTime from clock,  clock stop time = 2011-07-02_00:00:00
 DEBUG input_wrf():  get CurrTime from clock,  clock time step = 0000000000_003:000:000
input_wrf.F reading 2d real xlat
 date 2011-07-01_00:00:00
 ds            1           1           1
 de          312         327           1
 ps            1           1           1
 pe          312         327           1
 ms           -4          -4           1
 me          318         333           1
d01 2011-07-01_00:00:00 module_io.F: in wrf_read_field
d01 2011-07-01_00:00:00  NetCDF error: NetCDF: Variable not found
d01 2011-07-01_00:00:00  NetCDF error in wrf_io.F90, line        2861 Varname XLAT
 input_wrf.F reading 2d real xlat Status =        -1021
input_wrf.F reading 2d real xlong
 date 2011-07-01_00:00:00
 ds            1           1           1
 de          312         327           1
 ps            1           1           1
 pe          312         327           1
 ms           -4          -4           1
 me          318         333           1
d01 2011-07-01_00:00:00 module_io.F: in wrf_read_field
d01 2011-07-01_00:00:00  NetCDF error: NetCDF: Variable not found
d01 2011-07-01_00:00:00  NetCDF error in wrf_io.F90, line        2861 Varname XLONG
 input_wrf.F reading 2d real xlong Status =        -1021
input_wrf.F reading 2d real lu_index
 date 2011-07-01_00:00:00
 ds            1           1           1
 de          312         327           1
 ps            1           1           1
 pe          312         327           1
 ms           -4          -4           1
 me          318         333           1
d01 2011-07-01_00:00:00 module_io.F: in wrf_read_field
 input_wrf.F reading 2d real lu_index Status =            0
input_wrf.F reading 3d real u_gc
 date 2011-07-01_00:00:00
 ds            1           1           1
 de          313          40         327
 ps            1           1           1
 pe          313          40         327
 ms           -4           1          -4
 me          318          40         333
d01 2011-07-01_00:00:00 module_io.F: in wrf_read_field
 input_wrf.F reading 3d real u_gc Status =            0
input_wrf.F reading 3d real v_gc
 date 2011-07-01_00:00:00
 ds            1           1           1
 de          312          40         328
 ps            1           1           1
 pe          312          40         328
 ms           -4           1          -4
 me          318          40         333
d01 2011-07-01_00:00:00 module_io.F: in wrf_read_field
 input_wrf.F reading 3d real v_gc Status =            0
input_wrf.F reading 3d real t_gc
 date 2011-07-01_00:00:00
 ds            1           1           1
 de          312          40         327
 ps            1           1           1
 pe          312          40         327
 ms           -4           1          -4
 me          318          40         333
d01 2011-07-01_00:00:00 module_io.F: in wrf_read_field
 input_wrf.F reading 3d real t_gc Status =            0
input_wrf.F reading 3d real rh_gc
 date 2011-07-01_00:00:00
 ds            1           1           1
 de          312          40         327
 ps            1           1           1
 pe          312          40         327
 ms           -4           1          -4
 me          318          40         333
d01 2011-07-01_00:00:00 module_io.F: in wrf_read_field
 input_wrf.F reading 3d real rh_gc Status =            0
input_wrf.F reading 3d real ght_gc
 date 2011-07-01_00:00:00
 ds            1           1           1
 de          312          40         327
 ps            1           1           1
 pe          312          40         327
 ms           -4           1          -4
 me          318          40         333
d01 2011-07-01_00:00:00 module_io.F: in wrf_read_field
 input_wrf.F reading 3d real ght_gc Status =            0
input_wrf.F reading 3d real p_gc
 date 2011-07-01_00:00:00
 ds            1           1           1
 de          312          40         327
 ps            1           1           1
 pe          312          40         327
 ms           -4           1          -4
 me          318          40         333
d01 2011-07-01_00:00:00 module_io.F: in wrf_read_field
 input_wrf.F reading 3d real p_gc Status =            0
input_wrf.F reading 3d real prho_gc
 date 2011-07-01_00:00:00
 ds            1           1           1
 de          312          40         327
 ps            1           1           1
 pe          312          40         327
 ms           -4           1          -4
 me          318          40         333
d01 2011-07-01_00:00:00 module_io.F: in wrf_read_field
d01 2011-07-01_00:00:00  NetCDF error: NetCDF: Variable not found
d01 2011-07-01_00:00:00  NetCDF error in wrf_io.F90, line        2861 Varname PRHO
 input_wrf.F reading 3d real prho_gc Status =        -1021
input_wrf.F reading 2d real xlat_gc
 date 2011-07-01_00:00:00
 ds            1           1           1
 de          312         327           1
 ps            1           1           1
 pe          312         327           1
 ms           -4          -4           1
 me          318         333           1
d01 2011-07-01_00:00:00 module_io.F: in wrf_read_field
 input_wrf.F reading 2d real xlat_gc Status =            0
input_wrf.F reading 2d real xlong_gc
 date 2011-07-01_00:00:00
 ds            1           1           1
 de          312         327           1
 ps            1           1           1
 pe          312         327           1
 ms           -4          -4           1
 me          318         333           1
d01 2011-07-01_00:00:00 module_io.F: in wrf_read_field
 input_wrf.F reading 2d real xlong_gc Status =            0
input_wrf.F reading 2d real ht_gc
 date 2011-07-01_00:00:00
 ds            1           1           1
 de          312         327           1
 ps            1           1           1
 pe          312         327           1
 ms           -4          -4           1
 me          318         333           1
d01 2011-07-01_00:00:00 module_io.F: in wrf_read_field
 input_wrf.F reading 2d real ht_gc Status =            0
input_wrf.F reading 2d real var_sso
 date 2011-07-01_00:00:00
 ds            1           1           1
 de          312         327           1
 ps            1           1           1
 pe          312         327           1
 ms           -4          -4           1
 me          318         333           1
d01 2011-07-01_00:00:00 module_io.F: in wrf_read_field
 input_wrf.F reading 2d real var_sso Status =            0
input_wrf.F reading 2d real tsk_gc
 date 2011-07-01_00:00:00
 ds            1           1           1
 de          312         327           1
 ps            1           1           1
 pe          312         327           1
 ms           -4          -4           1
 me          318         333           1
d01 2011-07-01_00:00:00 module_io.F: in wrf_read_field
 input_wrf.F reading 2d real tsk_gc Status =            0
input_wrf.F reading 2d real tavgsfc
 date 2011-07-01_00:00:00
 ds            1           1           1
 de          312         327           1
 ps            1           1           1
 pe          312         327           1
 ms           -4          -4           1
 me          318         333           1
d01 2011-07-01_00:00:00 module_io.F: in wrf_read_field
d01 2011-07-01_00:00:00  NetCDF error: NetCDF: Variable not found
d01 2011-07-01_00:00:00  NetCDF error in wrf_io.F90, line        2861 Varname TAVGSFC
 input_wrf.F reading 2d real tavgsfc Status =        -1021
input_wrf.F reading 2d real tmn_gc
 date 2011-07-01_00:00:00
 ds            1           1           1
 de          312         327           1
 ps            1           1           1
 pe          312         327           1
 ms           -4          -4           1
 me          318         333           1
d01 2011-07-01_00:00:00 module_io.F: in wrf_read_field
 input_wrf.F reading 2d real tmn_gc Status =            0
input_wrf.F reading 2d real pslv_gc
 date 2011-07-01_00:00:00
 ds            1           1           1
 de          312         327           1
 ps            1           1           1
 pe          312         327           1
 ms           -4          -4           1
 me          318         333           1
d01 2011-07-01_00:00:00 module_io.F: in wrf_read_field
 input_wrf.F reading 2d real pslv_gc Status =            0
input_wrf.F reading 2d real sct_dom_gc
 date 2011-07-01_00:00:00
 ds            1           1           1
 de          312         327           1
 ps            1           1           1
 pe          312         327           1
 ms           -4          -4           1
 me          318         333           1
d01 2011-07-01_00:00:00 module_io.F: in wrf_read_field
 input_wrf.F reading 2d real sct_dom_gc Status =            0
input_wrf.F reading 2d real scb_dom_gc
 date 2011-07-01_00:00:00
 ds            1           1           1
 de          312         327           1
 ps            1           1           1
 pe          312         327           1
 ms           -4          -4           1
 me          318         333           1
d01 2011-07-01_00:00:00 module_io.F: in wrf_read_field
 input_wrf.F reading 2d real scb_dom_gc Status =            0
input_wrf.F reading 3d real greenfrac
 date 2011-07-01_00:00:00
 ds            1           1           1
 de          312          12         327
 ps            1           1           1
 pe          312          12         327
 ms           -4           1          -4
 me          318          12         333
d01 2011-07-01_00:00:00 module_io.F: in wrf_read_field
 input_wrf.F reading 3d real greenfrac Status =            0
input_wrf.F reading 3d real albedo12m
 date 2011-07-01_00:00:00
 ds            1           1           1
 de          312          12         327
 ps            1           1           1
 pe          312          12         327
 ms           -4           1          -4
 me          318          12         333
d01 2011-07-01_00:00:00 module_io.F: in wrf_read_field
 input_wrf.F reading 3d real albedo12m Status =            0
input_wrf.F reading 3d real lai12m
 date 2011-07-01_00:00:00
 ds            1           1           1
 de          312          12         327
 ps            1           1           1
 pe          312          12         327
 ms           -4           1          -4
 me          318          12         333
d01 2011-07-01_00:00:00 module_io.F: in wrf_read_field
 input_wrf.F reading 3d real lai12m Status =            0
input_wrf.F reading 3d real qv_gc
 date 2011-07-01_00:00:00
 ds            1           1           1
 de          312          40         327
 ps            1           1           1
 pe          312          40         327
 ms           -4           1          -4
 me          318          40         333
d01 2011-07-01_00:00:00 module_io.F: in wrf_read_field
d01 2011-07-01_00:00:00  NetCDF error: NetCDF: Variable not found
d01 2011-07-01_00:00:00  NetCDF error in wrf_io.F90, line        2861 Varname QV
 input_wrf.F reading 3d real qv_gc Status =        -1021
input_wrf.F reading 3d real sh_gc
 date 2011-07-01_00:00:00
 ds            1           1           1
 de          312          40         327
 ps            1           1           1
 pe          312          40         327
 ms           -4           1          -4
 me          318          40         333
d01 2011-07-01_00:00:00 module_io.F: in wrf_read_field
d01 2011-07-01_00:00:00  NetCDF error: NetCDF: Variable not found
d01 2011-07-01_00:00:00  NetCDF error in wrf_io.F90, line        2861 Varname SPECHUMD
 input_wrf.F reading 3d real sh_gc Status =        -1021
input_wrf.F reading 3d real cl_gc
 date 2011-07-01_00:00:00
 ds            1           1           1
 de          312          40         327
 ps            1           1           1
 pe          312          40         327
 ms           -4           1          -4
 me          318          40         333
d01 2011-07-01_00:00:00 module_io.F: in wrf_read_field
d01 2011-07-01_00:00:00  NetCDF error: NetCDF: Variable not found
d01 2011-07-01_00:00:00  NetCDF error in wrf_io.F90, line        2861 Varname SPECCLDL
 input_wrf.F reading 3d real cl_gc Status =        -1021
input_wrf.F reading 3d real cf_gc
 date 2011-07-01_00:00:00
 ds            1           1           1
 de          312          40         327
 ps            1           1           1
 pe          312          40         327
 ms           -4           1          -4
 me          318          40         333
d01 2011-07-01_00:00:00 module_io.F: in wrf_read_field
d01 2011-07-01_00:00:00  NetCDF error: NetCDF: Variable not found
d01 2011-07-01_00:00:00  NetCDF error in wrf_io.F90, line        2861 Varname SPECCLDF
 input_wrf.F reading 3d real cf_gc Status =        -1021
input_wrf.F reading 2d real icefrac_gc
 date 2011-07-01_00:00:00
 ds            1           1           1
 de          312         327           1
 ps            1           1           1
 pe          312         327           1
 ms           -4          -4           1
 me          318         333           1
d01 2011-07-01_00:00:00 module_io.F: in wrf_read_field
d01 2011-07-01_00:00:00  NetCDF error: NetCDF: Variable not found
d01 2011-07-01_00:00:00  NetCDF error in wrf_io.F90, line        2861 Varname ICEFRAC
 input_wrf.F reading 2d real icefrac_gc Status =        -1021
input_wrf.F reading 2d real icepct
 date 2011-07-01_00:00:00
 ds            1           1           1
 de          312         327           1
 ps            1           1           1
 pe          312         327           1
 ms           -4          -4           1
 me          318         333           1
d01 2011-07-01_00:00:00 module_io.F: in wrf_read_field
d01 2011-07-01_00:00:00  NetCDF error: NetCDF: Variable not found
d01 2011-07-01_00:00:00  NetCDF error in wrf_io.F90, line        2861 Varname ICEPCT
 input_wrf.F reading 2d real icepct Status =        -1021
input_wrf.F reading 3d real qr_gc
 date 2011-07-01_00:00:00
 ds            1           1           1
 de          312          40         327
 ps            1           1           1
 pe          312          40         327
 ms           -4           1          -4
 me          318          40         333
d01 2011-07-01_00:00:00 module_io.F: in wrf_read_field
d01 2011-07-01_00:00:00  NetCDF error: NetCDF: Variable not found
d01 2011-07-01_00:00:00  NetCDF error in wrf_io.F90, line        2861 Varname QR
 input_wrf.F reading 3d real qr_gc Status =        -1021
input_wrf.F reading 3d real qc_gc
 date 2011-07-01_00:00:00
 ds            1           1           1
 de          312          40         327
 ps            1           1           1
 pe          312          40         327
 ms           -4           1          -4
 me          318          40         333
d01 2011-07-01_00:00:00 module_io.F: in wrf_read_field
d01 2011-07-01_00:00:00  NetCDF error: NetCDF: Variable not found
d01 2011-07-01_00:00:00  NetCDF error in wrf_io.F90, line        2861 Varname QC
 input_wrf.F reading 3d real qc_gc Status =        -1021
input_wrf.F reading 3d real qs_gc
 date 2011-07-01_00:00:00
 ds            1           1           1
 de          312          40         327
 ps            1           1           1
 pe          312          40         327
 ms           -4           1          -4
 me          318          40         333
d01 2011-07-01_00:00:00 module_io.F: in wrf_read_field
d01 2011-07-01_00:00:00  NetCDF error: NetCDF: Variable not found
d01 2011-07-01_00:00:00  NetCDF error in wrf_io.F90, line        2861 Varname QS
 input_wrf.F reading 3d real qs_gc Status =        -1021
input_wrf.F reading 3d real qi_gc
 date 2011-07-01_00:00:00
 ds            1           1           1
 de          312          40         327
 ps            1           1           1
 pe          312          40         327
 ms           -4           1          -4
 me          318          40         333
d01 2011-07-01_00:00:00 module_io.F: in wrf_read_field
d01 2011-07-01_00:00:00  NetCDF error: NetCDF: Variable not found
d01 2011-07-01_00:00:00  NetCDF error in wrf_io.F90, line        2861 Varname QI
 input_wrf.F reading 3d real qi_gc Status =        -1021
input_wrf.F reading 3d real qg_gc
 date 2011-07-01_00:00:00
 ds            1           1           1
 de          312          40         327
 ps            1           1           1
 pe          312          40         327
 ms           -4           1          -4
 me          318          40         333
d01 2011-07-01_00:00:00 module_io.F: in wrf_read_field
d01 2011-07-01_00:00:00  NetCDF error: NetCDF: Variable not found
d01 2011-07-01_00:00:00  NetCDF error in wrf_io.F90, line        2861 Varname QG
 input_wrf.F reading 3d real qg_gc Status =        -1021
input_wrf.F reading 3d real qh_gc
 date 2011-07-01_00:00:00
 ds            1           1           1
 de          312          40         327
 ps            1           1           1
 pe          312          40         327
 ms           -4           1          -4
 me          318          40         333
d01 2011-07-01_00:00:00 module_io.F: in wrf_read_field
d01 2011-07-01_00:00:00  NetCDF error: NetCDF: Variable not found
d01 2011-07-01_00:00:00  NetCDF error in wrf_io.F90, line        2861 Varname QH
 input_wrf.F reading 3d real qh_gc Status =        -1021
input_wrf.F reading 3d real qni_gc
 date 2011-07-01_00:00:00
 ds            1           1           1
 de          312          40         327
 ps            1           1           1
 pe          312          40         327
 ms           -4           1          -4
 me          318          40         333
d01 2011-07-01_00:00:00 module_io.F: in wrf_read_field
d01 2011-07-01_00:00:00  NetCDF error: NetCDF: Variable not found
d01 2011-07-01_00:00:00  NetCDF error in wrf_io.F90, line        2861 Varname QNI
 input_wrf.F reading 3d real qni_gc Status =        -1021
input_wrf.F reading 3d real qnr_gc
 date 2011-07-01_00:00:00
 ds            1           1           1
 de          312          40         327
 ps            1           1           1
 pe          312          40         327
 ms           -4           1          -4
 me          318          40         333
d01 2011-07-01_00:00:00 module_io.F: in wrf_read_field
d01 2011-07-01_00:00:00  NetCDF error: NetCDF: Variable not found
d01 2011-07-01_00:00:00  NetCDF error in wrf_io.F90, line        2861 Varname QNR
 input_wrf.F reading 3d real qnr_gc Status =        -1021
input_wrf.F reading 3d real qnwfa_jan
 date 2011-07-01_00:00:00
 ds            1           1           1
 de          312          40         327
 ps            1           1           1
 pe          312          40         327
 ms           -4           1          -4
 me          318          40         333
d01 2011-07-01_00:00:00 module_io.F: in wrf_read_field
d01 2011-07-01_00:00:00  Warning READ PAST EOF in ext_ncd_read_field of QNWFA_JAN          40>          26
 input_wrf.F reading 3d real qnwfa_jan Status =          -13
input_wrf.F reading 3d real qnwfa_feb
 date 2011-07-01_00:00:00
 ds            1           1           1
 de          312          40         327
 ps            1           1           1
 pe          312          40         327
 ms           -4           1          -4
 me          318          40         333
d01 2011-07-01_00:00:00 module_io.F: in wrf_read_field
d01 2011-07-01_00:00:00  Warning READ PAST EOF in ext_ncd_read_field of QNWFA_FEB          40>          26
 input_wrf.F reading 3d real qnwfa_feb Status =          -13
input_wrf.F reading 3d real qnwfa_mar
 date 2011-07-01_00:00:00
 ds            1           1           1
 de          312          40         327
 ps            1           1           1
 pe          312          40         327
 ms           -4           1          -4
 me          318          40         333
d01 2011-07-01_00:00:00 module_io.F: in wrf_read_field
d01 2011-07-01_00:00:00  Warning READ PAST EOF in ext_ncd_read_field of QNWFA_MAR          40>          26
 input_wrf.F reading 3d real qnwfa_mar Status =          -13
input_wrf.F reading 3d real qnwfa_apr
 date 2011-07-01_00:00:00
 ds            1           1           1
 de          312          40         327
 ps            1           1           1
 pe          312          40         327
 ms           -4           1          -4
 me          318          40         333
d01 2011-07-01_00:00:00 module_io.F: in wrf_read_field
d01 2011-07-01_00:00:00  Warning READ PAST EOF in ext_ncd_read_field of QNWFA_APR          40>          26
 input_wrf.F reading 3d real qnwfa_apr Status =          -13
input_wrf.F reading 3d real qnwfa_may
 date 2011-07-01_00:00:00
 ds            1           1           1
 de          312          40         327
 ps            1           1           1
 pe          312          40         327
 ms           -4           1          -4
 me          318          40         333
d01 2011-07-01_00:00:00 module_io.F: in wrf_read_field
d01 2011-07-01_00:00:00  Warning READ PAST EOF in ext_ncd_read_field of QNWFA_MAY          40>          26
 input_wrf.F reading 3d real qnwfa_may Status =          -13
input_wrf.F reading 3d real qnwfa_jun
 date 2011-07-01_00:00:00
 ds            1           1           1
 de          312          40         327
 ps            1           1           1
 pe          312          40         327
 ms           -4           1          -4
 me          318          40         333
d01 2011-07-01_00:00:00 module_io.F: in wrf_read_field
d01 2011-07-01_00:00:00  Warning READ PAST EOF in ext_ncd_read_field of QNWFA_JUN          40>          26
 input_wrf.F reading 3d real qnwfa_jun Status =          -13
input_wrf.F reading 3d real qnwfa_jul
 date 2011-07-01_00:00:00
 ds            1           1           1
 de          312          40         327
 ps            1           1           1
 pe          312          40         327
 ms           -4           1          -4
 me          318          40         333
d01 2011-07-01_00:00:00 module_io.F: in wrf_read_field
d01 2011-07-01_00:00:00  Warning READ PAST EOF in ext_ncd_read_field of QNWFA_JUL          40>          26
 input_wrf.F reading 3d real qnwfa_jul Status =          -13
input_wrf.F reading 3d real qnwfa_aug
 date 2011-07-01_00:00:00
 ds            1           1           1
 de          312          40         327
 ps            1           1           1
 pe          312          40         327
 ms           -4           1          -4
 me          318          40         333
d01 2011-07-01_00:00:00 module_io.F: in wrf_read_field
d01 2011-07-01_00:00:00  Warning READ PAST EOF in ext_ncd_read_field of QNWFA_AUG          40>          26
 input_wrf.F reading 3d real qnwfa_aug Status =          -13
input_wrf.F reading 3d real qnwfa_sep
 date 2011-07-01_00:00:00
 ds            1           1           1
 de          312          40         327
 ps            1           1           1
 pe          312          40         327
 ms           -4           1          -4
 me          318          40         333
d01 2011-07-01_00:00:00 module_io.F: in wrf_read_field
d01 2011-07-01_00:00:00  Warning READ PAST EOF in ext_ncd_read_field of QNWFA_SEP          40>          26
 input_wrf.F reading 3d real qnwfa_sep Status =          -13
input_wrf.F reading 3d real qnwfa_oct
 date 2011-07-01_00:00:00
 ds            1           1           1
 de          312          40         327
 ps            1           1           1
 pe          312          40         327
 ms           -4           1          -4
 me          318          40         333
d01 2011-07-01_00:00:00 module_io.F: in wrf_read_field
d01 2011-07-01_00:00:00  Warning READ PAST EOF in ext_ncd_read_field of QNWFA_OCT          40>          26
 input_wrf.F reading 3d real qnwfa_oct Status =          -13
input_wrf.F reading 3d real qnwfa_nov
 date 2011-07-01_00:00:00
 ds            1           1           1
 de          312          40         327
 ps            1           1           1
 pe          312          40         327
 ms           -4           1          -4
 me          318          40         333
d01 2011-07-01_00:00:00 module_io.F: in wrf_read_field
d01 2011-07-01_00:00:00  Warning READ PAST EOF in ext_ncd_read_field of QNWFA_NOV          40>          26
 input_wrf.F reading 3d real qnwfa_nov Status =          -13
input_wrf.F reading 3d real qnwfa_dec
 date 2011-07-01_00:00:00
 ds            1           1           1
 de          312          40         327
 ps            1           1           1
 pe          312          40         327
 ms           -4           1          -4
 me          318          40         333
d01 2011-07-01_00:00:00 module_io.F: in wrf_read_field
d01 2011-07-01_00:00:00  Warning READ PAST EOF in ext_ncd_read_field of QNWFA_DEC          40>          26
 input_wrf.F reading 3d real qnwfa_dec Status =          -13
input_wrf.F reading 3d real qnifa_jan
 date 2011-07-01_00:00:00
 ds            1           1           1
 de          312          40         327
 ps            1           1           1
 pe          312          40         327
 ms           -4           1          -4
 me          318          40         333
d01 2011-07-01_00:00:00 module_io.F: in wrf_read_field
d01 2011-07-01_00:00:00  Warning READ PAST EOF in ext_ncd_read_field of QNIFA_JAN          40>          26
 input_wrf.F reading 3d real qnifa_jan Status =          -13
input_wrf.F reading 3d real qnifa_feb
 date 2011-07-01_00:00:00
 ds            1           1           1
 de          312          40         327
 ps            1           1           1
 pe          312          40         327
 ms           -4           1          -4
 me          318          40         333
d01 2011-07-01_00:00:00 module_io.F: in wrf_read_field
d01 2011-07-01_00:00:00  Warning READ PAST EOF in ext_ncd_read_field of QNIFA_FEB          40>          26
 input_wrf.F reading 3d real qnifa_feb Status =          -13
input_wrf.F reading 3d real qnifa_mar
 date 2011-07-01_00:00:00
 ds            1           1           1
 de          312          40         327
 ps            1           1           1
 pe          312          40         327
 ms           -4           1          -4
 me          318          40         333
d01 2011-07-01_00:00:00 module_io.F: in wrf_read_field
d01 2011-07-01_00:00:00  Warning READ PAST EOF in ext_ncd_read_field of QNIFA_MAR          40>          26
 input_wrf.F reading 3d real qnifa_mar Status =          -13
input_wrf.F reading 3d real qnifa_apr
 date 2011-07-01_00:00:00
 ds            1           1           1
 de          312          40         327
 ps            1           1           1
 pe          312          40         327
 ms           -4           1          -4
 me          318          40         333
d01 2011-07-01_00:00:00 module_io.F: in wrf_read_field
d01 2011-07-01_00:00:00  Warning READ PAST EOF in ext_ncd_read_field of QNIFA_APR          40>          26
 input_wrf.F reading 3d real qnifa_apr Status =          -13
input_wrf.F reading 3d real qnifa_may
 date 2011-07-01_00:00:00
 ds            1           1           1
 de          312          40         327
 ps            1           1           1
 pe          312          40         327
 ms           -4           1          -4
 me          318          40         333
d01 2011-07-01_00:00:00 module_io.F: in wrf_read_field
d01 2011-07-01_00:00:00  Warning READ PAST EOF in ext_ncd_read_field of QNIFA_MAY          40>          26
 input_wrf.F reading 3d real qnifa_may Status =          -13
input_wrf.F reading 3d real qnifa_jun
 date 2011-07-01_00:00:00
 ds            1           1           1
 de          312          40         327
 ps            1           1           1
 pe          312          40         327
 ms           -4           1          -4
 me          318          40         333
d01 2011-07-01_00:00:00 module_io.F: in wrf_read_field
d01 2011-07-01_00:00:00  Warning READ PAST EOF in ext_ncd_read_field of QNIFA_JUN          40>          26
 input_wrf.F reading 3d real qnifa_jun Status =          -13
input_wrf.F reading 3d real qnifa_jul
 date 2011-07-01_00:00:00
 ds            1           1           1
 de          312          40         327
 ps            1           1           1
 pe          312          40         327
 ms           -4           1          -4
 me          318          40         333
d01 2011-07-01_00:00:00 module_io.F: in wrf_read_field
d01 2011-07-01_00:00:00  Warning READ PAST EOF in ext_ncd_read_field of QNIFA_JUL          40>          26
 input_wrf.F reading 3d real qnifa_jul Status =          -13
input_wrf.F reading 3d real qnifa_aug
 date 2011-07-01_00:00:00
 ds            1           1           1
 de          312          40         327
 ps            1           1           1
 pe          312          40         327
 ms           -4           1          -4
 me          318          40         333
d01 2011-07-01_00:00:00 module_io.F: in wrf_read_field
d01 2011-07-01_00:00:00  Warning READ PAST EOF in ext_ncd_read_field of QNIFA_AUG          40>          26
 input_wrf.F reading 3d real qnifa_aug Status =          -13
input_wrf.F reading 3d real qnifa_sep
 date 2011-07-01_00:00:00
 ds            1           1           1
 de          312          40         327
 ps            1           1           1
 pe          312          40         327
 ms           -4           1          -4
 me          318          40         333
d01 2011-07-01_00:00:00 module_io.F: in wrf_read_field
d01 2011-07-01_00:00:00  Warning READ PAST EOF in ext_ncd_read_field of QNIFA_SEP          40>          26
 input_wrf.F reading 3d real qnifa_sep Status =          -13
input_wrf.F reading 3d real qnifa_oct
 date 2011-07-01_00:00:00
 ds            1           1           1
 de          312          40         327
 ps            1           1           1
 pe          312          40         327
 ms           -4           1          -4
 me          318          40         333
d01 2011-07-01_00:00:00 module_io.F: in wrf_read_field
d01 2011-07-01_00:00:00  Warning READ PAST EOF in ext_ncd_read_field of QNIFA_OCT          40>          26
 input_wrf.F reading 3d real qnifa_oct Status =          -13
input_wrf.F reading 3d real qnifa_nov
 date 2011-07-01_00:00:00
 ds            1           1           1
 de          312          40         327
 ps            1           1           1
 pe          312          40         327
 ms           -4           1          -4
 me          318          40         333
d01 2011-07-01_00:00:00 module_io.F: in wrf_read_field
d01 2011-07-01_00:00:00  Warning READ PAST EOF in ext_ncd_read_field of QNIFA_NOV          40>          26
 input_wrf.F reading 3d real qnifa_nov Status =          -13
input_wrf.F reading 3d real qnifa_dec
 date 2011-07-01_00:00:00
 ds            1           1           1
 de          312          40         327
 ps            1           1           1
 pe          312          40         327
 ms           -4           1          -4
 me          318          40         333
d01 2011-07-01_00:00:00 module_io.F: in wrf_read_field
d01 2011-07-01_00:00:00  Warning READ PAST EOF in ext_ncd_read_field of QNIFA_DEC          40>          26
 input_wrf.F reading 3d real qnifa_dec Status =          -13
input_wrf.F reading 2d real hgtmaxw
 date 2011-07-01_00:00:00
 ds            1           1           1
 de          312         327           1
 ps            1           1           1
 pe          312         327           1
 ms           -4          -4           1
 me          318         333           1
d01 2011-07-01_00:00:00 module_io.F: in wrf_read_field
d01 2011-07-01_00:00:00  NetCDF error: NetCDF: Variable not found
d01 2011-07-01_00:00:00  NetCDF error in wrf_io.F90, line        2861 Varname HGTMAXW
 input_wrf.F reading 2d real hgtmaxw Status =        -1021
input_wrf.F reading 2d real hgttrop
 date 2011-07-01_00:00:00
 ds            1           1           1
 de          312         327           1
 ps            1           1           1
 pe          312         327           1
 ms           -4          -4           1
 me          318         333           1
d01 2011-07-01_00:00:00 module_io.F: in wrf_read_field
d01 2011-07-01_00:00:00  NetCDF error: NetCDF: Variable not found
d01 2011-07-01_00:00:00  NetCDF error in wrf_io.F90, line        2861 Varname HGTTROP
 input_wrf.F reading 2d real hgttrop Status =        -1021
input_wrf.F reading 2d real pmaxw
 date 2011-07-01_00:00:00
 ds            1           1           1
 de          312         327           1
 ps            1           1           1
 pe          312         327           1
 ms           -4          -4           1
 me          318         333           1
d01 2011-07-01_00:00:00 module_io.F: in wrf_read_field
d01 2011-07-01_00:00:00  NetCDF error: NetCDF: Variable not found
d01 2011-07-01_00:00:00  NetCDF error in wrf_io.F90, line        2861 Varname PMAXW
 input_wrf.F reading 2d real pmaxw Status =        -1021
input_wrf.F reading 2d real ptrop
 date 2011-07-01_00:00:00
 ds            1           1           1
 de          312         327           1
 ps            1           1           1
 pe          312         327           1
 ms           -4          -4           1
 me          318         333           1
d01 2011-07-01_00:00:00 module_io.F: in wrf_read_field
d01 2011-07-01_00:00:00  NetCDF error: NetCDF: Variable not found
d01 2011-07-01_00:00:00  NetCDF error in wrf_io.F90, line        2861 Varname PTROP
 input_wrf.F reading 2d real ptrop Status =        -1021
input_wrf.F reading 2d real tmaxw
 date 2011-07-01_00:00:00
 ds            1           1           1
 de          312         327           1
 ps            1           1           1
 pe          312         327           1
 ms           -4          -4           1
 me          318         333           1
d01 2011-07-01_00:00:00 module_io.F: in wrf_read_field
d01 2011-07-01_00:00:00  NetCDF error: NetCDF: Variable not found
d01 2011-07-01_00:00:00  NetCDF error in wrf_io.F90, line        2861 Varname TMAXW
 input_wrf.F reading 2d real tmaxw Status =        -1021
input_wrf.F reading 2d real ttrop
 date 2011-07-01_00:00:00
 ds            1           1           1
 de          312         327           1
 ps            1           1           1
 pe          312         327           1
 ms           -4          -4           1
 me          318         333           1
d01 2011-07-01_00:00:00 module_io.F: in wrf_read_field
d01 2011-07-01_00:00:00  NetCDF error: NetCDF: Variable not found
d01 2011-07-01_00:00:00  NetCDF error in wrf_io.F90, line        2861 Varname TTROP
 input_wrf.F reading 2d real ttrop Status =        -1021
input_wrf.F reading 2d real umaxw
 date 2011-07-01_00:00:00
 ds            1           1           1
 de          313         327           1
 ps            1           1           1
 pe          313         327           1
 ms           -4          -4           1
 me          318         333           1
d01 2011-07-01_00:00:00 module_io.F: in wrf_read_field
d01 2011-07-01_00:00:00  NetCDF error: NetCDF: Variable not found
d01 2011-07-01_00:00:00  NetCDF error in wrf_io.F90, line        2861 Varname UMAXW
 input_wrf.F reading 2d real umaxw Status =        -1021
input_wrf.F reading 2d real utrop
 date 2011-07-01_00:00:00
 ds            1           1           1
 de          313         327           1
 ps            1           1           1
 pe          313         327           1
 ms           -4          -4           1
 me          318         333           1
d01 2011-07-01_00:00:00 module_io.F: in wrf_read_field
d01 2011-07-01_00:00:00  NetCDF error: NetCDF: Variable not found
d01 2011-07-01_00:00:00  NetCDF error in wrf_io.F90, line        2861 Varname UTROP
 input_wrf.F reading 2d real utrop Status =        -1021
input_wrf.F reading 2d real vmaxw
 date 2011-07-01_00:00:00
 ds            1           1           1
 de          312         328           1
 ps            1           1           1
 pe          312         328           1
 ms           -4          -4           1
 me          318         333           1
d01 2011-07-01_00:00:00 module_io.F: in wrf_read_field
d01 2011-07-01_00:00:00  NetCDF error: NetCDF: Variable not found
d01 2011-07-01_00:00:00  NetCDF error in wrf_io.F90, line        2861 Varname VMAXW
 input_wrf.F reading 2d real vmaxw Status =        -1021
input_wrf.F reading 2d real vtrop
 date 2011-07-01_00:00:00
 ds            1           1           1
 de          312         328           1
 ps            1           1           1
 pe          312         328           1
 ms           -4          -4           1
 me          318         333           1
d01 2011-07-01_00:00:00 module_io.F: in wrf_read_field
d01 2011-07-01_00:00:00  NetCDF error: NetCDF: Variable not found
d01 2011-07-01_00:00:00  NetCDF error in wrf_io.F90, line        2861 Varname VTROP
 input_wrf.F reading 2d real vtrop Status =        -1021
input_wrf.F reading 2d real mu0
 date 2011-07-01_00:00:00
 ds            1           1           1
 de          312         327           1
 ps            1           1           1
 pe          312         327           1
 ms           -4          -4           1
 me          318         333           1
d01 2011-07-01_00:00:00 module_io.F: in wrf_read_field
d01 2011-07-01_00:00:00  NetCDF error: NetCDF: Variable not found
d01 2011-07-01_00:00:00  NetCDF error in wrf_io.F90, line        2861 Varname MU0
 input_wrf.F reading 2d real mu0 Status =        -1021
input_wrf.F reading 2d real t2
 date 2011-07-01_00:00:00
 ds            1           1           1
 de          312         327           1
 ps            1           1           1
 pe          312         327           1
 ms           -4          -4           1
 me          318         333           1
d01 2011-07-01_00:00:00 module_io.F: in wrf_read_field
d01 2011-07-01_00:00:00  NetCDF error: NetCDF: Variable not found
d01 2011-07-01_00:00:00  NetCDF error in wrf_io.F90, line        2861 Varname T2
 input_wrf.F reading 2d real t2 Status =        -1021
input_wrf.F reading 2d real psfc
 date 2011-07-01_00:00:00
 ds            1           1           1
 de          312         327           1
 ps            1           1           1
 pe          312         327           1
 ms           -4          -4           1
 me          318         333           1
d01 2011-07-01_00:00:00 module_io.F: in wrf_read_field
 input_wrf.F reading 2d real psfc Status =            0
input_wrf.F reading 3d real soil_layers
 date 2011-07-01_00:00:00
 ds            1           1           1
 de          312           4         327
 ps            1           1           1
 pe          312           4         327
 ms           -4           1          -4
 me          318           4         333
d01 2011-07-01_00:00:00 module_io.F: in wrf_read_field
 input_wrf.F reading 3d real soil_layers Status =            0
input_wrf.F reading 3d real soil_levels
 date 2011-07-01_00:00:00
 ds            1           1           1
 de          312           4         327
 ps            1           1           1
 pe          312           4         327
 ms           -4           1          -4
 me          318           4         333
d01 2011-07-01_00:00:00 module_io.F: in wrf_read_field
d01 2011-07-01_00:00:00  NetCDF error: NetCDF: Variable not found
d01 2011-07-01_00:00:00  NetCDF error in wrf_io.F90, line        2861 Varname SOIL_LEVELS
 input_wrf.F reading 3d real soil_levels Status =        -1021
input_wrf.F reading 3d real st
 date 2011-07-01_00:00:00
 ds            1           1           1
 de          312           4         327
 ps            1           1           1
 pe          312           4         327
 ms           -4           1          -4
 me          318           4         333
d01 2011-07-01_00:00:00 module_io.F: in wrf_read_field
 input_wrf.F reading 3d real st Status =            0
input_wrf.F reading 3d real sm
 date 2011-07-01_00:00:00
 ds            1           1           1
 de          312           4         327
 ps            1           1           1
 pe          312           4         327
 ms           -4           1          -4
 me          318           4         333
d01 2011-07-01_00:00:00 module_io.F: in wrf_read_field
 input_wrf.F reading 3d real sm Status =            0
input_wrf.F reading 3d real sw
 date 2011-07-01_00:00:00
 ds            1           1           1
 de          312           4         327
 ps            1           1           1
 pe          312           4         327
 ms           -4           1          -4
 me          318           4         333
d01 2011-07-01_00:00:00 module_io.F: in wrf_read_field
d01 2011-07-01_00:00:00  NetCDF error: NetCDF: Variable not found
d01 2011-07-01_00:00:00  NetCDF error in wrf_io.F90, line        2861 Varname SW
 input_wrf.F reading 3d real sw Status =        -1021
input_wrf.F reading 3d real soilt
 date 2011-07-01_00:00:00
 ds            1           1           1
 de          312           4         327
 ps            1           1           1
 pe          312           4         327
 ms           -4           1          -4
 me          318           4         333
d01 2011-07-01_00:00:00 module_io.F: in wrf_read_field
d01 2011-07-01_00:00:00  NetCDF error: NetCDF: Variable not found
d01 2011-07-01_00:00:00  NetCDF error in wrf_io.F90, line        2861 Varname SOILT
 input_wrf.F reading 3d real soilt Status =        -1021
input_wrf.F reading 3d real soilm
 date 2011-07-01_00:00:00
 ds            1           1           1
 de          312           4         327
 ps            1           1           1
 pe          312           4         327
 ms           -4           1          -4
 me          318           4         333
d01 2011-07-01_00:00:00 module_io.F: in wrf_read_field
d01 2011-07-01_00:00:00  NetCDF error: NetCDF: Variable not found
d01 2011-07-01_00:00:00  NetCDF error in wrf_io.F90, line        2861 Varname SOILM
 input_wrf.F reading 3d real soilm Status =        -1021
input_wrf.F reading 2d real sm000007
 date 2011-07-01_00:00:00
 ds            1           1           1
 de          312         327           1
 ps            1           1           1
 pe          312         327           1
 ms           -4          -4           1
 me          318         333           1
d01 2011-07-01_00:00:00 module_io.F: in wrf_read_field
d01 2011-07-01_00:00:00  NetCDF error: NetCDF: Variable not found
d01 2011-07-01_00:00:00  NetCDF error in wrf_io.F90, line        2861 Varname SM000007
 input_wrf.F reading 2d real sm000007 Status =        -1021
input_wrf.F reading 2d real sm007028
 date 2011-07-01_00:00:00
 ds            1           1           1
 de          312         327           1
 ps            1           1           1
 pe          312         327           1
 ms           -4          -4           1
 me          318         333           1
d01 2011-07-01_00:00:00 module_io.F: in wrf_read_field
d01 2011-07-01_00:00:00  NetCDF error: NetCDF: Variable not found
d01 2011-07-01_00:00:00  NetCDF error in wrf_io.F90, line        2861 Varname SM007028
 input_wrf.F reading 2d real sm007028 Status =        -1021
input_wrf.F reading 2d real sm028100
 date 2011-07-01_00:00:00
 ds            1           1           1
 de          312         327           1
 ps            1           1           1
 pe          312         327           1
 ms           -4          -4           1
 me          318         333           1
d01 2011-07-01_00:00:00 module_io.F: in wrf_read_field
d01 2011-07-01_00:00:00  NetCDF error: NetCDF: Variable not found
d01 2011-07-01_00:00:00  NetCDF error in wrf_io.F90, line        2861 Varname SM028100
 input_wrf.F reading 2d real sm028100 Status =        -1021
input_wrf.F reading 2d real sm100255
 date 2011-07-01_00:00:00
 ds            1           1           1
 de          312         327           1
 ps            1           1           1
 pe          312         327           1
 ms           -4          -4           1
 me          318         333           1
d01 2011-07-01_00:00:00 module_io.F: in wrf_read_field
d01 2011-07-01_00:00:00  NetCDF error: NetCDF: Variable not found
d01 2011-07-01_00:00:00  NetCDF error in wrf_io.F90, line        2861 Varname SM100255
 input_wrf.F reading 2d real sm100255 Status =        -1021
input_wrf.F reading 2d real st000007
 date 2011-07-01_00:00:00
 ds            1           1           1
 de          312         327           1
 ps            1           1           1
 pe          312         327           1
 ms           -4          -4           1
 me          318         333           1
d01 2011-07-01_00:00:00 module_io.F: in wrf_read_field
d01 2011-07-01_00:00:00  NetCDF error: NetCDF: Variable not found
d01 2011-07-01_00:00:00  NetCDF error in wrf_io.F90, line        2861 Varname ST000007
 input_wrf.F reading 2d real st000007 Status =        -1021
input_wrf.F reading 2d real st007028
 date 2011-07-01_00:00:00
 ds            1           1           1
 de          312         327           1
 ps            1           1           1
 pe          312         327           1
 ms           -4          -4           1
 me          318         333           1
d01 2011-07-01_00:00:00 module_io.F: in wrf_read_field
d01 2011-07-01_00:00:00  NetCDF error: NetCDF: Variable not found
d01 2011-07-01_00:00:00  NetCDF error in wrf_io.F90, line        2861 Varname ST007028
 input_wrf.F reading 2d real st007028 Status =        -1021
input_wrf.F reading 2d real st028100
 date 2011-07-01_00:00:00
 ds            1           1           1
 de          312         327           1
 ps            1           1           1
 pe          312         327           1
 ms           -4          -4           1
 me          318         333           1
d01 2011-07-01_00:00:00 module_io.F: in wrf_read_field
d01 2011-07-01_00:00:00  NetCDF error: NetCDF: Variable not found
d01 2011-07-01_00:00:00  NetCDF error in wrf_io.F90, line        2861 Varname ST028100
 input_wrf.F reading 2d real st028100 Status =        -1021
input_wrf.F reading 2d real st100255
 date 2011-07-01_00:00:00
 ds            1           1           1
 de          312         327           1
 ps            1           1           1
 pe          312         327           1
 ms           -4          -4           1
 me          318         333           1
d01 2011-07-01_00:00:00 module_io.F: in wrf_read_field
d01 2011-07-01_00:00:00  NetCDF error: NetCDF: Variable not found
d01 2011-07-01_00:00:00  NetCDF error in wrf_io.F90, line        2861 Varname ST100255
 input_wrf.F reading 2d real st100255 Status =        -1021
input_wrf.F reading 2d real sm000010
 date 2011-07-01_00:00:00
 ds            1           1           1
 de          312         327           1
 ps            1           1           1
 pe          312         327           1
 ms           -4          -4           1
 me          318         333           1
d01 2011-07-01_00:00:00 module_io.F: in wrf_read_field
 input_wrf.F reading 2d real sm000010 Status =            0
input_wrf.F reading 2d real sm010040
 date 2011-07-01_00:00:00
 ds            1           1           1
 de          312         327           1
 ps            1           1           1
 pe          312         327           1
 ms           -4          -4           1
 me          318         333           1
d01 2011-07-01_00:00:00 module_io.F: in wrf_read_field
 input_wrf.F reading 2d real sm010040 Status =            0
input_wrf.F reading 2d real sm040100
 date 2011-07-01_00:00:00
 ds            1           1           1
 de          312         327           1
 ps            1           1           1
 pe          312         327           1
 ms           -4          -4           1
 me          318         333           1
d01 2011-07-01_00:00:00 module_io.F: in wrf_read_field
 input_wrf.F reading 2d real sm040100 Status =            0
input_wrf.F reading 2d real sm100200
 date 2011-07-01_00:00:00
 ds            1           1           1
 de          312         327           1
 ps            1           1           1
 pe          312         327           1
 ms           -4          -4           1
 me          318         333           1
d01 2011-07-01_00:00:00 module_io.F: in wrf_read_field
 input_wrf.F reading 2d real sm100200 Status =            0
input_wrf.F reading 2d real sm010200
 date 2011-07-01_00:00:00
 ds            1           1           1
 de          312         327           1
 ps            1           1           1
 pe          312         327           1
 ms           -4          -4           1
 me          318         333           1
d01 2011-07-01_00:00:00 module_io.F: in wrf_read_field
d01 2011-07-01_00:00:00  NetCDF error: NetCDF: Variable not found
d01 2011-07-01_00:00:00  NetCDF error in wrf_io.F90, line        2861 Varname SM010200
 input_wrf.F reading 2d real sm010200 Status =        -1021
input_wrf.F reading 2d real soilm000
 date 2011-07-01_00:00:00
 ds            1           1           1
 de          312         327           1
 ps            1           1           1
 pe          312         327           1
 ms           -4          -4           1
 me          318         333           1
d01 2011-07-01_00:00:00 module_io.F: in wrf_read_field
d01 2011-07-01_00:00:00  NetCDF error: NetCDF: Variable not found
d01 2011-07-01_00:00:00  NetCDF error in wrf_io.F90, line        2861 Varname SOILM000
 input_wrf.F reading 2d real soilm000 Status =        -1021
input_wrf.F reading 2d real soilm005
 date 2011-07-01_00:00:00
 ds            1           1           1
 de          312         327           1
 ps            1           1           1
 pe          312         327           1
 ms           -4          -4           1
 me          318         333           1
d01 2011-07-01_00:00:00 module_io.F: in wrf_read_field
d01 2011-07-01_00:00:00  NetCDF error: NetCDF: Variable not found
d01 2011-07-01_00:00:00  NetCDF error in wrf_io.F90, line        2861 Varname SOILM005
 input_wrf.F reading 2d real soilm005 Status =        -1021
input_wrf.F reading 2d real soilm020
 date 2011-07-01_00:00:00
 ds            1           1           1
 de          312         327           1
 ps            1           1           1
 pe          312         327           1
 ms           -4          -4           1
 me          318         333           1
d01 2011-07-01_00:00:00 module_io.F: in wrf_read_field
d01 2011-07-01_00:00:00  NetCDF error: NetCDF: Variable not found
d01 2011-07-01_00:00:00  NetCDF error in wrf_io.F90, line        2861 Varname SOILM020
 input_wrf.F reading 2d real soilm020 Status =        -1021
input_wrf.F reading 2d real soilm040
 date 2011-07-01_00:00:00
 ds            1           1           1
 de          312         327           1
 ps            1           1           1
 pe          312         327           1
 ms           -4          -4           1
 me          318         333           1
d01 2011-07-01_00:00:00 module_io.F: in wrf_read_field
d01 2011-07-01_00:00:00  NetCDF error: NetCDF: Variable not found
d01 2011-07-01_00:00:00  NetCDF error in wrf_io.F90, line        2861 Varname SOILM040
 input_wrf.F reading 2d real soilm040 Status =        -1021
input_wrf.F reading 2d real soilm160
 date 2011-07-01_00:00:00
 ds            1           1           1
 de          312         327           1
 ps            1           1           1
 pe          312         327           1
 ms           -4          -4           1
 me          318         333           1
d01 2011-07-01_00:00:00 module_io.F: in wrf_read_field
d01 2011-07-01_00:00:00  NetCDF error: NetCDF: Variable not found
d01 2011-07-01_00:00:00  NetCDF error in wrf_io.F90, line        2861 Varname SOILM160
 input_wrf.F reading 2d real soilm160 Status =        -1021
input_wrf.F reading 2d real soilm300
 date 2011-07-01_00:00:00
 ds            1           1           1
 de          312         327           1
 ps            1           1           1
 pe          312         327           1
 ms           -4          -4           1
 me          318         333           1
d01 2011-07-01_00:00:00 module_io.F: in wrf_read_field
d01 2011-07-01_00:00:00  NetCDF error: NetCDF: Variable not found
d01 2011-07-01_00:00:00  NetCDF error in wrf_io.F90, line        2861 Varname SOILM300
 input_wrf.F reading 2d real soilm300 Status =        -1021
input_wrf.F reading 2d real sw000010
 date 2011-07-01_00:00:00
 ds            1           1           1
 de          312         327           1
 ps            1           1           1
 pe          312         327           1
 ms           -4          -4           1
 me          318         333           1
d01 2011-07-01_00:00:00 module_io.F: in wrf_read_field
d01 2011-07-01_00:00:00  NetCDF error: NetCDF: Variable not found
d01 2011-07-01_00:00:00  NetCDF error in wrf_io.F90, line        2861 Varname SW000010
 input_wrf.F reading 2d real sw000010 Status =        -1021
input_wrf.F reading 2d real sw010040
 date 2011-07-01_00:00:00
 ds            1           1           1
 de          312         327           1
 ps            1           1           1
 pe          312         327           1
 ms           -4          -4           1
 me          318         333           1
d01 2011-07-01_00:00:00 module_io.F: in wrf_read_field
d01 2011-07-01_00:00:00  NetCDF error: NetCDF: Variable not found
d01 2011-07-01_00:00:00  NetCDF error in wrf_io.F90, line        2861 Varname SW010040
 input_wrf.F reading 2d real sw010040 Status =        -1021
input_wrf.F reading 2d real sw040100
 date 2011-07-01_00:00:00
 ds            1           1           1
 de          312         327           1
 ps            1           1           1
 pe          312         327           1
 ms           -4          -4           1
 me          318         333           1
d01 2011-07-01_00:00:00 module_io.F: in wrf_read_field
d01 2011-07-01_00:00:00  NetCDF error: NetCDF: Variable not found
d01 2011-07-01_00:00:00  NetCDF error in wrf_io.F90, line        2861 Varname SW040100
 input_wrf.F reading 2d real sw040100 Status =        -1021
input_wrf.F reading 2d real sw100200
 date 2011-07-01_00:00:00
 ds            1           1           1
 de          312         327           1
 ps            1           1           1
 pe          312         327           1
 ms           -4          -4           1
 me          318         333           1
d01 2011-07-01_00:00:00 module_io.F: in wrf_read_field
d01 2011-07-01_00:00:00  NetCDF error: NetCDF: Variable not found
d01 2011-07-01_00:00:00  NetCDF error in wrf_io.F90, line        2861 Varname SW100200
 input_wrf.F reading 2d real sw100200 Status =        -1021
input_wrf.F reading 2d real sw010200
 date 2011-07-01_00:00:00
 ds            1           1           1
 de          312         327           1
 ps            1           1           1
 pe          312         327           1
 ms           -4          -4           1
 me          318         333           1
d01 2011-07-01_00:00:00 module_io.F: in wrf_read_field
d01 2011-07-01_00:00:00  NetCDF error: NetCDF: Variable not found
d01 2011-07-01_00:00:00  NetCDF error in wrf_io.F90, line        2861 Varname SW010200
 input_wrf.F reading 2d real sw010200 Status =        -1021
input_wrf.F reading 2d real soilw000
 date 2011-07-01_00:00:00
 ds            1           1           1
 de          312         327           1
 ps            1           1           1
 pe          312         327           1
 ms           -4          -4           1
 me          318         333           1
d01 2011-07-01_00:00:00 module_io.F: in wrf_read_field
d01 2011-07-01_00:00:00  NetCDF error: NetCDF: Variable not found
d01 2011-07-01_00:00:00  NetCDF error in wrf_io.F90, line        2861 Varname SOILW000
 input_wrf.F reading 2d real soilw000 Status =        -1021
input_wrf.F reading 2d real soilw005
 date 2011-07-01_00:00:00
 ds            1           1           1
 de          312         327           1
 ps            1           1           1
 pe          312         327           1
 ms           -4          -4           1
 me          318         333           1
d01 2011-07-01_00:00:00 module_io.F: in wrf_read_field
d01 2011-07-01_00:00:00  NetCDF error: NetCDF: Variable not found
d01 2011-07-01_00:00:00  NetCDF error in wrf_io.F90, line        2861 Varname SOILW005
 input_wrf.F reading 2d real soilw005 Status =        -1021
input_wrf.F reading 2d real soilw020
 date 2011-07-01_00:00:00
 ds            1           1           1
 de          312         327           1
 ps            1           1           1
 pe          312         327           1
 ms           -4          -4           1
 me          318         333           1
d01 2011-07-01_00:00:00 module_io.F: in wrf_read_field
d01 2011-07-01_00:00:00  NetCDF error: NetCDF: Variable not found
d01 2011-07-01_00:00:00  NetCDF error in wrf_io.F90, line        2861 Varname SOILW020
 input_wrf.F reading 2d real soilw020 Status =        -1021
input_wrf.F reading 2d real soilw040
 date 2011-07-01_00:00:00
 ds            1           1           1
 de          312         327           1
 ps            1           1           1
 pe          312         327           1
 ms           -4          -4           1
 me          318         333           1
d01 2011-07-01_00:00:00 module_io.F: in wrf_read_field
d01 2011-07-01_00:00:00  NetCDF error: NetCDF: Variable not found
d01 2011-07-01_00:00:00  NetCDF error in wrf_io.F90, line        2861 Varname SOILW040
 input_wrf.F reading 2d real soilw040 Status =        -1021
input_wrf.F reading 2d real soilw160
 date 2011-07-01_00:00:00
 ds            1           1           1
 de          312         327           1
 ps            1           1           1
 pe          312         327           1
 ms           -4          -4           1
 me          318         333           1
d01 2011-07-01_00:00:00 module_io.F: in wrf_read_field
d01 2011-07-01_00:00:00  NetCDF error: NetCDF: Variable not found
d01 2011-07-01_00:00:00  NetCDF error in wrf_io.F90, line        2861 Varname SOILW160
 input_wrf.F reading 2d real soilw160 Status =        -1021
input_wrf.F reading 2d real soilw300
 date 2011-07-01_00:00:00
 ds            1           1           1
 de          312         327           1
 ps            1           1           1
 pe          312         327           1
 ms           -4          -4           1
 me          318         333           1
d01 2011-07-01_00:00:00 module_io.F: in wrf_read_field
d01 2011-07-01_00:00:00  NetCDF error: NetCDF: Variable not found
d01 2011-07-01_00:00:00  NetCDF error in wrf_io.F90, line        2861 Varname SOILW300
 input_wrf.F reading 2d real soilw300 Status =        -1021
input_wrf.F reading 2d real st000010
 date 2011-07-01_00:00:00
 ds            1           1           1
 de          312         327           1
 ps            1           1           1
 pe          312         327           1
 ms           -4          -4           1
 me          318         333           1
d01 2011-07-01_00:00:00 module_io.F: in wrf_read_field
 input_wrf.F reading 2d real st000010 Status =            0
input_wrf.F reading 2d real st010040
 date 2011-07-01_00:00:00
 ds            1           1           1
 de          312         327           1
 ps            1           1           1
 pe          312         327           1
 ms           -4          -4           1
 me          318         333           1
d01 2011-07-01_00:00:00 module_io.F: in wrf_read_field
 input_wrf.F reading 2d real st010040 Status =            0
input_wrf.F reading 2d real st040100
 date 2011-07-01_00:00:00
 ds            1           1           1
 de          312         327           1
 ps            1           1           1
 pe          312         327           1
 ms           -4          -4           1
 me          318         333           1
d01 2011-07-01_00:00:00 module_io.F: in wrf_read_field
 input_wrf.F reading 2d real st040100 Status =            0
input_wrf.F reading 2d real st100200
 date 2011-07-01_00:00:00
 ds            1           1           1
 de          312         327           1
 ps            1           1           1
 pe          312         327           1
 ms           -4          -4           1
 me          318         333           1
d01 2011-07-01_00:00:00 module_io.F: in wrf_read_field
 input_wrf.F reading 2d real st100200 Status =            0
input_wrf.F reading 2d real st010200
 date 2011-07-01_00:00:00
 ds            1           1           1
 de          312         327           1
 ps            1           1           1
 pe          312         327           1
 ms           -4          -4           1
 me          318         333           1
d01 2011-07-01_00:00:00 module_io.F: in wrf_read_field
d01 2011-07-01_00:00:00  NetCDF error: NetCDF: Variable not found
d01 2011-07-01_00:00:00  NetCDF error in wrf_io.F90, line        2861 Varname ST010200
 input_wrf.F reading 2d real st010200 Status =        -1021
input_wrf.F reading 2d real soilt000
 date 2011-07-01_00:00:00
 ds            1           1           1
 de          312         327           1
 ps            1           1           1
 pe          312         327           1
 ms           -4          -4           1
 me          318         333           1
d01 2011-07-01_00:00:00 module_io.F: in wrf_read_field
d01 2011-07-01_00:00:00  NetCDF error: NetCDF: Variable not found
d01 2011-07-01_00:00:00  NetCDF error in wrf_io.F90, line        2861 Varname SOILT000
 input_wrf.F reading 2d real soilt000 Status =        -1021
input_wrf.F reading 2d real soilt005
 date 2011-07-01_00:00:00
 ds            1           1           1
 de          312         327           1
 ps            1           1           1
 pe          312         327           1
 ms           -4          -4           1
 me          318         333           1
d01 2011-07-01_00:00:00 module_io.F: in wrf_read_field
d01 2011-07-01_00:00:00  NetCDF error: NetCDF: Variable not found
d01 2011-07-01_00:00:00  NetCDF error in wrf_io.F90, line        2861 Varname SOILT005
 input_wrf.F reading 2d real soilt005 Status =        -1021
input_wrf.F reading 2d real soilt020
 date 2011-07-01_00:00:00
 ds            1           1           1
 de          312         327           1
 ps            1           1           1
 pe          312         327           1
 ms           -4          -4           1
 me          318         333           1
d01 2011-07-01_00:00:00 module_io.F: in wrf_read_field
d01 2011-07-01_00:00:00  NetCDF error: NetCDF: Variable not found
d01 2011-07-01_00:00:00  NetCDF error in wrf_io.F90, line        2861 Varname SOILT020
 input_wrf.F reading 2d real soilt020 Status =        -1021
input_wrf.F reading 2d real soilt040
 date 2011-07-01_00:00:00
 ds            1           1           1
 de          312         327           1
 ps            1           1           1
 pe          312         327           1
 ms           -4          -4           1
 me          318         333           1
d01 2011-07-01_00:00:00 module_io.F: in wrf_read_field
d01 2011-07-01_00:00:00  NetCDF error: NetCDF: Variable not found
d01 2011-07-01_00:00:00  NetCDF error in wrf_io.F90, line        2861 Varname SOILT040
 input_wrf.F reading 2d real soilt040 Status =        -1021
input_wrf.F reading 2d real soilt160
 date 2011-07-01_00:00:00
 ds            1           1           1
 de          312         327           1
 ps            1           1           1
 pe          312         327           1
 ms           -4          -4           1
 me          318         333           1
d01 2011-07-01_00:00:00 module_io.F: in wrf_read_field
d01 2011-07-01_00:00:00  NetCDF error: NetCDF: Variable not found
d01 2011-07-01_00:00:00  NetCDF error in wrf_io.F90, line        2861 Varname SOILT160
 input_wrf.F reading 2d real soilt160 Status =        -1021
input_wrf.F reading 2d real soilt300
 date 2011-07-01_00:00:00
 ds            1           1           1
 de          312         327           1
 ps            1           1           1
 pe          312         327           1
 ms           -4          -4           1
 me          318         333           1
d01 2011-07-01_00:00:00 module_io.F: in wrf_read_field
d01 2011-07-01_00:00:00  NetCDF error: NetCDF: Variable not found
d01 2011-07-01_00:00:00  NetCDF error in wrf_io.F90, line        2861 Varname SOILT300
 input_wrf.F reading 2d real soilt300 Status =        -1021
input_wrf.F reading 2d real topostdv
 date 2011-07-01_00:00:00
 ds            1           1           1
 de          312         327           1
 ps            1           1           1
 pe          312         327           1
 ms           -4          -4           1
 me          318         333           1
d01 2011-07-01_00:00:00 module_io.F: in wrf_read_field
d01 2011-07-01_00:00:00  NetCDF error: NetCDF: Variable not found
d01 2011-07-01_00:00:00  NetCDF error in wrf_io.F90, line        2861 Varname TOPOSTDV
 input_wrf.F reading 2d real topostdv Status =        -1021
input_wrf.F reading 2d real toposlpx
 date 2011-07-01_00:00:00
 ds            1           1           1
 de          312         327           1
 ps            1           1           1
 pe          312         327           1
 ms           -4          -4           1
 me          318         333           1
d01 2011-07-01_00:00:00 module_io.F: in wrf_read_field
d01 2011-07-01_00:00:00  NetCDF error: NetCDF: Variable not found
d01 2011-07-01_00:00:00  NetCDF error in wrf_io.F90, line        2861 Varname TOPOSLPX
 input_wrf.F reading 2d real toposlpx Status =        -1021
input_wrf.F reading 2d real toposlpy
 date 2011-07-01_00:00:00
 ds            1           1           1
 de          312         327           1
 ps            1           1           1
 pe          312         327           1
 ms           -4          -4           1
 me          318         333           1
d01 2011-07-01_00:00:00 module_io.F: in wrf_read_field
d01 2011-07-01_00:00:00  NetCDF error: NetCDF: Variable not found
d01 2011-07-01_00:00:00  NetCDF error in wrf_io.F90, line        2861 Varname TOPOSLPY
 input_wrf.F reading 2d real toposlpy Status =        -1021
input_wrf.F reading 2d real shdmax
 date 2011-07-01_00:00:00
 ds            1           1           1
 de          312         327           1
 ps            1           1           1
 pe          312         327           1
 ms           -4          -4           1
 me          318         333           1
d01 2011-07-01_00:00:00 module_io.F: in wrf_read_field
d01 2011-07-01_00:00:00  NetCDF error: NetCDF: Variable not found
d01 2011-07-01_00:00:00  NetCDF error in wrf_io.F90, line        2861 Varname SHDMAX
 input_wrf.F reading 2d real shdmax Status =        -1021
input_wrf.F reading 2d real shdmin
 date 2011-07-01_00:00:00
 ds            1           1           1
 de          312         327           1
 ps            1           1           1
 pe          312         327           1
 ms           -4          -4           1
 me          318         333           1
d01 2011-07-01_00:00:00 module_io.F: in wrf_read_field
d01 2011-07-01_00:00:00  NetCDF error: NetCDF: Variable not found
d01 2011-07-01_00:00:00  NetCDF error in wrf_io.F90, line        2861 Varname SHDMIN
 input_wrf.F reading 2d real shdmin Status =        -1021
input_wrf.F reading 2d real snoalb
 date 2011-07-01_00:00:00
 ds            1           1           1
 de          312         327           1
 ps            1           1           1
 pe          312         327           1
 ms           -4          -4           1
 me          318         333           1
d01 2011-07-01_00:00:00 module_io.F: in wrf_read_field
 input_wrf.F reading 2d real snoalb Status =            0
input_wrf.F reading 2d real slopecat
 date 2011-07-01_00:00:00
 ds            1           1           1
 de          312         327           1
 ps            1           1           1
 pe          312         327           1
 ms           -4          -4           1
 me          318         333           1
d01 2011-07-01_00:00:00 module_io.F: in wrf_read_field
 input_wrf.F reading 2d real slopecat Status =            0
input_wrf.F reading 2d real toposoil
 date 2011-07-01_00:00:00
 ds            1           1           1
 de          312         327           1
 ps            1           1           1
 pe          312         327           1
 ms           -4          -4           1
 me          318         333           1
d01 2011-07-01_00:00:00 module_io.F: in wrf_read_field
 input_wrf.F reading 2d real toposoil Status =            0
input_wrf.F reading 3d real landusef
 date 2011-07-01_00:00:00
 ds            1           1           1
 de          312          40         327
 ps            1           1           1
 pe          312          40         327
 ms           -4           1          -4
[...]
 pe          312          35           5
 ms           -4           1           1
 me          318          36           5
d01 2011-07-01_21:00:00 module_io.F: in wrf_write_field
 inc/wrf_bdyout.inc ext_write_field QNIFA memorder YSZ Status =            0
Timing for wrf_ext_write_field:    0.00046 elapsed seconds
inc/wrf_bdyout.inc ext_write_field QNIFA memorder YEZ
 date 2011-07-01_21:00:00
 ds            1           1           1
 de          312          35           5
 ps            1           1           1
 pe          312          35           5
 ms           -4           1           1
 me          318          36           5
d01 2011-07-01_21:00:00 module_io.F: in wrf_write_field
 inc/wrf_bdyout.inc ext_write_field QNIFA memorder YEZ Status =            0
Timing for wrf_ext_write_field:    0.00043 elapsed seconds
inc/wrf_bdyout.inc ext_write_field HT_SHAD_BXS memorder XS
 date 2011-07-01_21:00:00
 ds            1           1           1
 de          327           5           1
 ps            1           1           1
 pe          327           5           1
 ms           -4           1           1
 me          333           5           1
d01 2011-07-01_21:00:00 module_io.F: in wrf_write_field
 inc/wrf_bdyout.inc ext_write_field HT_SHAD_BXS memorder XS Status =            0
Timing for wrf_ext_write_field:    0.00252 elapsed seconds
inc/wrf_bdyout.inc ext_write_field HT_SHAD_BXE memorder XE
 date 2011-07-01_21:00:00
 ds            1           1           1
 de          327           5           1
 ps            1           1           1
 pe          327           5           1
 ms           -4           1           1
 me          333           5           1
d01 2011-07-01_21:00:00 module_io.F: in wrf_write_field
 inc/wrf_bdyout.inc ext_write_field HT_SHAD_BXE memorder XE Status =            0
Timing for wrf_ext_write_field:    0.00021 elapsed seconds
inc/wrf_bdyout.inc ext_write_field HT_SHAD_BYS memorder YS
 date 2011-07-01_21:00:00
 ds            1           1           1
 de          312           5           1
 ps            1           1           1
 pe          312           5           1
 ms           -4           1           1
 me          318           5           1
d01 2011-07-01_21:00:00 module_io.F: in wrf_write_field
 inc/wrf_bdyout.inc ext_write_field HT_SHAD_BYS memorder YS Status =            0
Timing for wrf_ext_write_field:    0.00018 elapsed seconds
inc/wrf_bdyout.inc ext_write_field HT_SHAD_BYE memorder YE
 date 2011-07-01_21:00:00
 ds            1           1           1
 de          312           5           1
 ps            1           1           1
 pe          312           5           1
 ms           -4           1           1
 me          318           5           1
d01 2011-07-01_21:00:00 module_io.F: in wrf_write_field
 inc/wrf_bdyout.inc ext_write_field HT_SHAD_BYE memorder YE Status =            0
Timing for wrf_ext_write_field:    0.00174 elapsed seconds
inc/wrf_bdyout.inc ext_write_field HT_SHAD_BTXS memorder XS
 date 2011-07-01_21:00:00
 ds            1           1           1
 de          327           5           1
 ps            1           1           1
 pe          327           5           1
 ms           -4           1           1
 me          333           5           1
d01 2011-07-01_21:00:00 module_io.F: in wrf_write_field
 inc/wrf_bdyout.inc ext_write_field HT_SHAD_BTXS memorder XS Status =            0
Timing for wrf_ext_write_field:    0.00018 elapsed seconds
inc/wrf_bdyout.inc ext_write_field HT_SHAD_BTXE memorder XE
 date 2011-07-01_21:00:00
 ds            1           1           1
 de          327           5           1
 ps            1           1           1
 pe          327           5           1
 ms           -4           1           1
 me          333           5           1
d01 2011-07-01_21:00:00 module_io.F: in wrf_write_field
 inc/wrf_bdyout.inc ext_write_field HT_SHAD_BTXE memorder XE Status =            0
Timing for wrf_ext_write_field:    0.00019 elapsed seconds
inc/wrf_bdyout.inc ext_write_field HT_SHAD_BTYS memorder YS
 date 2011-07-01_21:00:00
 ds            1           1           1
 de          312           5           1
 ps            1           1           1
 pe          312           5           1
 ms           -4           1           1
 me          318           5           1
d01 2011-07-01_21:00:00 module_io.F: in wrf_write_field
 inc/wrf_bdyout.inc ext_write_field HT_SHAD_BTYS memorder YS Status =            0
Timing for wrf_ext_write_field:    0.00018 elapsed seconds
inc/wrf_bdyout.inc ext_write_field HT_SHAD_BTYE memorder YE
 date 2011-07-01_21:00:00
 ds            1           1           1
 de          312           5           1
 ps            1           1           1
 pe          312           5           1
 ms           -4           1           1
 me          318           5           1
d01 2011-07-01_21:00:00 module_io.F: in wrf_write_field
 inc/wrf_bdyout.inc ext_write_field HT_SHAD_BTYE memorder YE Status =            0
Timing for wrf_ext_write_field:    0.00018 elapsed seconds
d01 2011-07-01_21:00:00 output_wrf: calling wrf_iosync
d01 2011-07-01_21:00:00 module_io.F: in wrf_iosync
d01 2011-07-01_21:00:00 output_wrf: back from wrf_iosync
d01 2011-07-01_21:00:00  output_wrf: end, fid =            2
d01 2011-07-01_21:00:00  output_wrf: begin, fid =            3
d01 2011-07-01_21:00:00 module_io.F: in wrf_inquire_filename
d01 2011-07-01_21:00:00  output_wrf: fid,filestate =            3         102
d01 2011-07-01_21:00:00  output_wrf: dryrun =  F
d01 2011-07-01_21:00:00 OUTPUT_WRF:  mminlu = NLCD40
d01 2011-07-01_21:00:00  DEBUG wrf_timetoa():  returning with str = [2011-07-01_21:00:00]
d01 2011-07-01_21:00:00  DEBUG wrf_timetoa():  returning with str = [2011-07-01_00:00:00]
d01 2011-07-01_21:00:00  DEBUG wrf_timetoa():  returning with str = [2011-07-02_00:00:00]
d01 2011-07-01_21:00:00  DEBUG wrf_timeinttoa():  returning with str = [0000000000_003:000:000]
 DEBUG output_wrf():  before call to domain_clock_get,  clock start time = 2011-07-01_00:00:00
 DEBUG output_wrf():  before call to domain_clock_get,  clock current time = 2011-07-01_21:00:00
 DEBUG output_wrf():  before call to domain_clock_get,  clock stop time = 2011-07-02_00:00:00
 DEBUG output_wrf():  before call to domain_clock_get,  clock time step = 0000000000_003:000:000
d01 2011-07-01_21:00:00  DEBUG wrf_timetoa():  returning with str = [2011-07-01_21:00:00]
d01 2011-07-01_21:00:00  output_wrf: begin, current_date=2011-07-01_21:00:00
d01 2011-07-01_21:00:00 module_io.F (md_calls.m4) : in wrf_put_dom_ti_char_arr
d01 2011-07-01_21:00:00 module_io.F (md_calls.m4) : in wrf_put_dom_ti_char_arr
d01 2011-07-01_21:00:00 module_io.F (md_calls.m4) : in wrf_put_dom_ti_integer_arr
d01 2011-07-01_21:00:00 module_io.F (md_calls.m4) : in wrf_put_dom_ti_integer_arr
d01 2011-07-01_21:00:00 module_io.F (md_calls.m4) : in wrf_put_dom_ti_integer_arr
d01 2011-07-01_21:00:00 module_io.F (md_calls.m4) : in wrf_put_dom_ti_real_sca
d01 2011-07-01_21:00:00 module_io.F (md_calls.m4) : in wrf_put_dom_ti_real_sca
d01 2011-07-01_21:00:00 module_io.F (md_calls.m4) : in wrf_put_dom_ti_char_arr
d01 2011-07-01_21:00:00 module_io.F (md_calls.m4) : in wrf_put_dom_ti_integer_arr
d01 2011-07-01_21:00:00 module_io.F (md_calls.m4) : in wrf_put_dom_ti_integer_arr
d01 2011-07-01_21:00:00 module_io.F (md_calls.m4) : in wrf_put_dom_ti_integer_arr
d01 2011-07-01_21:00:00 module_io.F (md_calls.m4) : in wrf_put_dom_ti_real_arr
d01 2011-07-01_21:00:00 module_io.F (md_calls.m4) : in wrf_put_dom_ti_real_arr
d01 2011-07-01_21:00:00 module_io.F (md_calls.m4) : in wrf_put_dom_ti_real_arr
d01 2011-07-01_21:00:00 module_io.F (md_calls.m4) : in wrf_put_dom_ti_integer_arr
d01 2011-07-01_21:00:00 module_io.F (md_calls.m4) : in wrf_put_dom_ti_integer_arr
d01 2011-07-01_21:00:00 module_io.F (md_calls.m4) : in wrf_put_dom_ti_integer_arr
d01 2011-07-01_21:00:00 module_io.F (md_calls.m4) : in wrf_put_dom_ti_integer_arr
d01 2011-07-01_21:00:00 module_io.F (md_calls.m4) : in wrf_put_dom_ti_integer_arr
d01 2011-07-01_21:00:00 module_io.F (md_calls.m4) : in wrf_put_dom_ti_integer_arr
d01 2011-07-01_21:00:00 module_io.F (md_calls.m4) : in wrf_put_dom_ti_integer_arr
d01 2011-07-01_21:00:00 module_io.F (md_calls.m4) : in wrf_put_dom_ti_integer_arr
d01 2011-07-01_21:00:00 module_io.F (md_calls.m4) : in wrf_put_dom_ti_integer_sca
d01 2011-07-01_21:00:00 module_io.F (md_calls.m4) : in wrf_put_dom_ti_integer_sca
d01 2011-07-01_21:00:00 module_io.F (md_calls.m4) : in wrf_put_dom_ti_integer_sca
d01 2011-07-01_21:00:00 module_io.F (md_calls.m4) : in wrf_put_dom_ti_integer_sca
d01 2011-07-01_21:00:00 module_io.F (md_calls.m4) : in wrf_put_dom_ti_integer_sca
d01 2011-07-01_21:00:00 module_io.F (md_calls.m4) : in wrf_put_dom_ti_integer_sca
d01 2011-07-01_21:00:00 module_io.F (md_calls.m4) : in wrf_put_dom_ti_integer_sca
d01 2011-07-01_21:00:00 module_io.F (md_calls.m4) : in wrf_put_dom_ti_integer_sca
d01 2011-07-01_21:00:00 module_io.F (md_calls.m4) : in wrf_put_dom_ti_integer_sca
d01 2011-07-01_21:00:00 module_io.F (md_calls.m4) : in wrf_put_dom_ti_integer_arr
d01 2011-07-01_21:00:00 module_io.F (md_calls.m4) : in wrf_put_dom_ti_integer_arr
d01 2011-07-01_21:00:00 module_io.F (md_calls.m4) : in wrf_put_dom_ti_integer_arr
d01 2011-07-01_21:00:00 module_io.F (md_calls.m4) : in wrf_put_dom_ti_integer_arr
d01 2011-07-01_21:00:00 module_io.F (md_calls.m4) : in wrf_put_dom_ti_integer_arr
d01 2011-07-01_21:00:00 module_io.F (md_calls.m4) : in wrf_put_dom_ti_integer_arr
d01 2011-07-01_21:00:00 module_io.F (md_calls.m4) : in wrf_put_dom_ti_integer_arr
d01 2011-07-01_21:00:00 module_io.F (md_calls.m4) : in wrf_put_dom_ti_integer_arr
d01 2011-07-01_21:00:00 module_io.F (md_calls.m4) : in wrf_put_dom_ti_integer_arr
d01 2011-07-01_21:00:00 module_io.F (md_calls.m4) : in wrf_put_dom_ti_integer_arr
d01 2011-07-01_21:00:00 module_io.F (md_calls.m4) : in wrf_put_dom_ti_integer_arr
d01 2011-07-01_21:00:00 module_io.F (md_calls.m4) : in wrf_put_dom_ti_integer_arr
d01 2011-07-01_21:00:00 module_io.F (md_calls.m4) : in wrf_put_dom_ti_integer_arr
d01 2011-07-01_21:00:00 module_io.F (md_calls.m4) : in wrf_put_dom_ti_integer_arr
d01 2011-07-01_21:00:00 module_io.F (md_calls.m4) : in wrf_put_dom_ti_integer_arr
d01 2011-07-01_21:00:00 module_io.F (md_calls.m4) : in wrf_put_dom_ti_integer_arr
d01 2011-07-01_21:00:00 module_io.F (md_calls.m4) : in wrf_put_dom_ti_integer_arr
d01 2011-07-01_21:00:00 module_io.F (md_calls.m4) : in wrf_put_dom_ti_real_sca
d01 2011-07-01_21:00:00 module_io.F (md_calls.m4) : in wrf_put_dom_ti_real_sca
d01 2011-07-01_21:00:00 module_io.F (md_calls.m4) : in wrf_put_dom_ti_real_sca
d01 2011-07-01_21:00:00 module_io.F (md_calls.m4) : in wrf_put_dom_ti_real_sca
d01 2011-07-01_21:00:00 module_io.F (md_calls.m4) : in wrf_put_dom_ti_real_sca
d01 2011-07-01_21:00:00 module_io.F (md_calls.m4) : in wrf_put_dom_ti_real_sca
d01 2011-07-01_21:00:00 module_io.F (md_calls.m4) : in wrf_put_dom_ti_real_sca
d01 2011-07-01_21:00:00 module_io.F (md_calls.m4) : in wrf_put_dom_ti_real_sca
d01 2011-07-01_21:00:00 module_io.F (md_calls.m4) : in wrf_put_dom_ti_real_sca
d01 2011-07-01_21:00:00 module_io.F (md_calls.m4) : in wrf_put_dom_ti_integer_sca
d01 2011-07-01_21:00:00 module_io.F (md_calls.m4) : in wrf_put_dom_ti_char_arr
d01 2011-07-01_21:00:00 module_io.F (md_calls.m4) : in wrf_put_dom_ti_char_arr
d01 2011-07-01_21:00:00 module_io.F (md_calls.m4) : in wrf_put_dom_ti_integer_sca
d01 2011-07-01_21:00:00 module_io.F (md_calls.m4) : in wrf_put_dom_ti_integer_sca
d01 2011-07-01_21:00:00 module_io.F (md_calls.m4) : in wrf_put_dom_ti_integer_sca
d01 2011-07-01_21:00:00 module_io.F (md_calls.m4) : in wrf_put_dom_ti_integer_sca
d01 2011-07-01_21:00:00 module_io.F (md_calls.m4) : in wrf_put_dom_ti_integer_sca
d01 2011-07-01_21:00:00 module_io.F (md_calls.m4) : in wrf_put_dom_ti_integer_sca
output_wrf.b writing 4d real U_NDG_OLD
 date 2011-07-01_21:00:00
 ds            1           1           1
 de          312          35         327
 ps            1           1           1
 pe          312          35         327
 ms           -4           1          -4
 me          318          36         333
d01 2011-07-01_21:00:00 module_io.F: in wrf_write_field
 output_wrf.b writing 4d real U_NDG_OLD Status =            0
Timing for wrf_ext_write_field:    0.08127 elapsed seconds
output_wrf.b writing 4d real V_NDG_OLD
 date 2011-07-01_21:00:00
 ds            1           1           1
 de          312          35         327
 ps            1           1           1
 pe          312          35         327
 ms           -4           1          -4
 me          318          36         333
d01 2011-07-01_21:00:00 module_io.F: in wrf_write_field
 output_wrf.b writing 4d real V_NDG_OLD Status =            0
Timing for wrf_ext_write_field:    0.02388 elapsed seconds
output_wrf.b writing 4d real T_NDG_OLD
 date 2011-07-01_21:00:00
 ds            1           1           1
 de          312          35         327
 ps            1           1           1
 pe          312          35         327
 ms           -4           1          -4
 me          318          36         333
d01 2011-07-01_21:00:00 module_io.F: in wrf_write_field
 output_wrf.b writing 4d real T_NDG_OLD Status =            0
Timing for wrf_ext_write_field:    0.02534 elapsed seconds
output_wrf.b writing 4d real Q_NDG_OLD
 date 2011-07-01_21:00:00
 ds            1           1           1
 de          312          35         327
 ps            1           1           1
 pe          312          35         327
 ms           -4           1          -4
 me          318          36         333
d01 2011-07-01_21:00:00 module_io.F: in wrf_write_field
 output_wrf.b writing 4d real Q_NDG_OLD Status =            0
Timing for wrf_ext_write_field:    0.02932 elapsed seconds
output_wrf.b writing 4d real PH_NDG_OLD
 date 2011-07-01_21:00:00
 ds            1           1           1
 de          312          35         327
 ps            1           1           1
 pe          312          35         327
 ms           -4           1          -4
 me          318          36         333
d01 2011-07-01_21:00:00 module_io.F: in wrf_write_field
 output_wrf.b writing 4d real PH_NDG_OLD Status =            0
Timing for wrf_ext_write_field:    0.02550 elapsed seconds
output_wrf.b writing 4d real U_NDG_NEW
 date 2011-07-01_21:00:00
 ds            1           1           1
 de          312          35         327
 ps            1           1           1
 pe          312          35         327
 ms           -4           1          -4
 me          318          36         333
d01 2011-07-01_21:00:00 module_io.F: in wrf_write_field
 output_wrf.b writing 4d real U_NDG_NEW Status =            0
Timing for wrf_ext_write_field:    0.02869 elapsed seconds
output_wrf.b writing 4d real V_NDG_NEW
 date 2011-07-01_21:00:00
 ds            1           1           1
 de          312          35         327
 ps            1           1           1
 pe          312          35         327
 ms           -4           1          -4
 me          318          36         333
d01 2011-07-01_21:00:00 module_io.F: in wrf_write_field
 output_wrf.b writing 4d real V_NDG_NEW Status =            0
Timing for wrf_ext_write_field:    0.02981 elapsed seconds
output_wrf.b writing 4d real T_NDG_NEW
 date 2011-07-01_21:00:00
 ds            1           1           1
 de          312          35         327
 ps            1           1           1
 pe          312          35         327
 ms           -4           1          -4
 me          318          36         333
d01 2011-07-01_21:00:00 module_io.F: in wrf_write_field
 output_wrf.b writing 4d real T_NDG_NEW Status =            0
Timing for wrf_ext_write_field:    0.02561 elapsed seconds
output_wrf.b writing 4d real Q_NDG_NEW
 date 2011-07-01_21:00:00
 ds            1           1           1
 de          312          35         327
 ps            1           1           1
 pe          312          35         327
 ms           -4           1          -4
 me          318          36         333
d01 2011-07-01_21:00:00 module_io.F: in wrf_write_field
 output_wrf.b writing 4d real Q_NDG_NEW Status =            0
Timing for wrf_ext_write_field:    0.03004 elapsed seconds
output_wrf.b writing 4d real PH_NDG_NEW
 date 2011-07-01_21:00:00
 ds            1           1           1
 de          312          35         327
 ps            1           1           1
 pe          312          35         327
 ms           -4           1          -4
 me          318          36         333
d01 2011-07-01_21:00:00 module_io.F: in wrf_write_field
 output_wrf.b writing 4d real PH_NDG_NEW Status =            0
Timing for wrf_ext_write_field:    0.02450 elapsed seconds
output_wrf.b writing 4d real MU_NDG_OLD
 date 2011-07-01_21:00:00
 ds            1           1           1
 de          312           1         327
 ps            1           1           1
 pe          312           1         327
 ms           -4           1          -4
 me          318           1         333
d01 2011-07-01_21:00:00 module_io.F: in wrf_write_field
 output_wrf.b writing 4d real MU_NDG_OLD Status =            0
Timing for wrf_ext_write_field:    0.00074 elapsed seconds
output_wrf.b writing 4d real MU_NDG_NEW
 date 2011-07-01_21:00:00
 ds            1           1           1
 de          312           1         327
 ps            1           1           1
 pe          312           1         327
 ms           -4           1          -4
 me          318           1         333
d01 2011-07-01_21:00:00 module_io.F: in wrf_write_field
 output_wrf.b writing 4d real MU_NDG_NEW Status =            0
Timing for wrf_ext_write_field:    0.00070 elapsed seconds
d01 2011-07-01_21:00:00 output_wrf: calling wrf_iosync
d01 2011-07-01_21:00:00 module_io.F: in wrf_iosync
d01 2011-07-01_21:00:00 output_wrf: back from wrf_iosync
d01 2011-07-01_21:00:00  output_wrf: end, fid =            3
d01 2011-07-01_21:00:00  DEBUG wrf_timetoa():  returning with str = [2011-07-01_21:00:00]
d01 2011-07-01_21:00:00  DEBUG wrf_timetoa():  returning with str = [2011-07-01_00:00:00]
d01 2011-07-01_21:00:00  DEBUG wrf_timetoa():  returning with str = [2011-07-02_00:00:00]
d01 2011-07-01_21:00:00  DEBUG wrf_timeinttoa():  returning with str = [0000000000_003:000:000]
 DEBUG assemble_output:  clock before 3rd current_date set,  clock start time = 2011-07-01_00:00:00
 DEBUG assemble_output:  clock before 3rd current_date set,  clock current time = 2011-07-01_21:00:00
 DEBUG assemble_output:  clock before 3rd current_date set,  clock stop time = 2011-07-02_00:00:00
 DEBUG assemble_output:  clock before 3rd current_date set,  clock time step = 0000000000_003:000:000
d01 2011-07-01_21:00:00  DEBUG assemble_output:  before 3rd currTime set, current_date = 2011-07-02_00:00:00
d01 2011-07-02_00:00:00  DEBUG wrf_timetoa():  returning with str = [2011-07-02_00:00:00]
d01 2011-07-02_00:00:00  DEBUG wrf_timetoa():  returning with str = [2011-07-01_00:00:00]
d01 2011-07-02_00:00:00  DEBUG wrf_timetoa():  returning with str = [2011-07-02_00:00:00]
d01 2011-07-02_00:00:00  DEBUG wrf_timeinttoa():  returning with str = [0000000000_003:000:000]
 DEBUG assemble_output:  clock after 3rd current_date set,  clock start time = 2011-07-01_00:00:00
 DEBUG assemble_output:  clock after 3rd current_date set,  clock current time = 2011-07-02_00:00:00
 DEBUG assemble_output:  clock after 3rd current_date set,  clock stop time = 2011-07-02_00:00:00
 DEBUG assemble_output:  clock after 3rd current_date set,  clock time step = 0000000000_003:000:000
d01 2011-07-02_00:00:00 module_io.F: in wrf_ioclose
d01 2011-07-02_00:00:00 module_io.F: in wrf_ioclose
d01 2011-07-02_00:00:00 module_io.F: in wrf_ioclose
d01 2011-07-02_00:00:00 Timing for output          1 s.
d01 2011-07-02_00:00:00 Timing for loop #    9 =          8 s.
d01 2011-07-02_00:00:00 backfrom med_sidata_input
d01 2011-07-02_00:00:00 real_em: SUCCESS COMPLETE REAL_EM INIT
